
#######################################################################
#
#                 Cambridge Crystallographic Data Centre
#                                CCDC
#
#######################################################################
#
# If this CIF has been generated from an entry in the Cambridge
# Structural Database, then it will include bibliographic, chemical,
# crystal, experimental, refinement or atomic coordinate data resulting
# from the CCDC's data processing and validation procedures.
#
#######################################################################

data_CSD_CIF_BEQBEH
_audit_creation_date 2018-02-23
_audit_creation_method CSD-ConQuest-V1
_database_code_CSD BEQBEH
_database_code_depnum_ccdc_archive 'CCDC 1578197'
_chemical_formula_sum 'C72 H105.7 Au4 Br2 Co2 N4 O18.83 P4 S4'
_chemical_formula_moiety
;
C72 H84 Au4 Co2 N4 O8 P4 S4 2+,10.83(H2 O1),2(Br1 1-)
;
_journal_coden_Cambridge 1540
_journal_volume 8
_journal_year 2018
_journal_page_first 2606
_journal_name_full 'Scientific Reports '
loop_
_publ_author_name
"S.Yamashita"
"Y.Nakazawa"
"S.Yamanaka"
"M.Okumura"
"T.Kojima"
"N.Yoshinari"
"T.Konno"
_chemical_name_systematic
;
bis(\m~2~-1,2-bis(Diphenylphosphino)ethane-P,P')-tetrakis(\m~2~-D-penicillamin
ato)-di-cobalt(iii)-tetra-gold(i) dibromide hydrate
;
_cell_volume  54438.646
_exptl_crystal_colour 'purple'
_exptl_crystal_density_diffrn 1.921
_exptl_special_details
;
Absolute configuration

;
_exptl_crystal_description 'block'
_diffrn_ambient_temperature 100
_diffrn_radiation_probe x-ray
_diffrn_source synchrotron
#These two values have been output from a single CSD field.
_refine_ls_R_factor_gt 0.04
_refine_ls_wR_factor_gt 0.04
_symmetry_cell_setting cubic
_symmetry_space_group_name_H-M 'F 2 3'
_symmetry_Int_Tables_number 196
loop_
_symmetry_equiv_pos_site_id
_symmetry_equiv_pos_as_xyz
1 x,y,z
2 -x,-y,z
3 x,-y,-z
4 -x,y,-z
5 y,z,x
6 -y,-z,x
7 y,-z,-x
8 -y,z,-x
9 z,x,y
10 -z,x,-y
11 -z,-x,y
12 z,-x,-y
13 x,1/2+y,1/2+z
14 -x,1/2-y,1/2+z
15 x,1/2-y,1/2-z
16 -x,1/2+y,1/2-z
17 y,1/2+z,1/2+x
18 -y,1/2-z,1/2+x
19 y,1/2-z,1/2-x
20 -y,1/2+z,1/2-x
21 z,1/2+x,1/2+y
22 -z,1/2+x,1/2-y
23 -z,1/2-x,1/2+y
24 z,1/2-x,1/2-y
25 1/2+x,y,1/2+z
26 1/2-x,-y,1/2+z
27 1/2+x,-y,1/2-z
28 1/2-x,y,1/2-z
29 1/2+y,z,1/2+x
30 1/2-y,-z,1/2+x
31 1/2+y,-z,1/2-x
32 1/2-y,z,1/2-x
33 1/2+z,x,1/2+y
34 1/2-z,x,1/2-y
35 1/2-z,-x,1/2+y
36 1/2+z,-x,1/2-y
37 1/2+x,1/2+y,z
38 1/2-x,1/2-y,z
39 1/2+x,1/2-y,-z
40 1/2-x,1/2+y,-z
41 1/2+y,1/2+z,x
42 1/2-y,1/2-z,x
43 1/2+y,1/2-z,-x
44 1/2-y,1/2+z,-x
45 1/2+z,1/2+x,y
46 1/2-z,1/2+x,-y
47 1/2-z,1/2-x,y
48 1/2+z,1/2-x,-y
_cell_length_a 37.8997(1)
_cell_length_b 37.8997(1)
_cell_length_c 37.8997(1)
_cell_angle_alpha 90
_cell_angle_beta 90
_cell_angle_gamma 90
_cell_formula_units_Z 24
loop_
_atom_type_symbol
_atom_type_radius_bond
C 0.68
H 0.23
Au 1.36
Br 1.21
Co 1.26
N 0.68
O 0.68
P 1.05
S 1.02
loop_
_atom_site_label
_atom_site_type_symbol
_atom_site_fract_x
_atom_site_fract
"T.Kojima"_y
_atom_site_fract_z
Co1 Co 0.12451(2) 0.07496(2) 0.24235(2)
Au1 Au 0.02995(2) 0.07083(2) 0.22819(2)
Au2 Au 0.07937(2) -0.00271(2) 0.26538(2)
C1 C 0.0743(2) 0.13486(18) 0.26896(18)
C2 C 0.1065(2) 0.14380(18) 0.2452(2)
H1 H 0.11190 0.16960 0.24600
C3 C 0.1001(2) 0.13178(19) 0.20764(19)
C4 C 0.0808(2) 0.1477(2) 0.3066(2)
H2 H 0.10220 0.13650 0.31590
H3 H 0.08380 0.17340 0.30660
H4 H 0.06060 0.14140 0.32140
C5 C 0.0410(2) 0.1523(2) 0.2544(2)
H5 H 0.03690 0.14400 0.23020
H6 H 0.02080 0.14600 0.26930
H7 H 0.04400 0.17790 0.25440
N1 N 0.13725(17) 0.12264(16) 0.25772(17)
H8 H 0.13950 0.12380 0.28160
H9 H 0.15770 0.13000 0.24750
O1 O 0.10822(14) 0.09906(13) 0.20119(13)
O2 O 0.0868(2) 0.15143(17) 0.18483(17)
S1 S 0.07191(5) 0.08556(4) 0.27041(4)
C6 C 0.15432(16) 0.00165(19) 0.21814(16)
C7 C 0.17799(17) 0.02849(18) 0.23731(17)
H10 H 0.20340 0.02220 0.23420
C8 C 0.16868(19) 0.03059(19) 0.27640(17)
C9 C 0.16564(19) -0.0021(2) 0.17964(18)
H11 H 0.16510 0.02110 0.16820
H12 H 0.18960 -0.01170 0.17860
H13 H 0.14940 -0.01810 0.16740
C10 C 0.15508(19) -0.0345(2) 0.23622(19)
H14 H 0.14780 -0.03200 0.26090
H15 H 0.13890 -0.05060 0.22410
H16 H 0.17910 -0.04420 0.23520
N2 N 0.17101(15) 0.06475(16) 0.22318(15)
H17 H 0.17080 0.06490 0.19920
H18 H 0.18740 0.08050 0.23100
O3 O 0.14327(13) 0.05249(14) 0.28331(12)
O4 O 0.18306(15) 0.01157(15) 0.29819(14)
S2 S 0.10917(4) 0.02212(4) 0.21805(4)
P1 P -0.01002(5) 0.05748(5) 0.18576(4)
P2 P 0.05207(5) -0.02642(5) 0.31269(5)
C11 C 0.00496(17) 0.07168(18) 0.14283(17)
C12 C -0.0103(2) 0.0580(2) 0.1118(2)
H19 H -0.02750 0.03980 0.11300
C13 C 0.0002(2) 0.0716(3) 0.07907(19)
H20 H -0.00960 0.06230 0.05790
C14 C 0.0249(2) 0.0987(2) 0.0777(2)
H21 H 0.03150 0.10830 0.05550
C15 C 0.0401(2) 0.1118(2) 0.1083(2)
H22 H 0.05700 0.13030 0.10700
C16 C 0.0306(2) 0.09775(18) 0.1407(2)
H23 H 0.04170 0.10600 0.16160
C17 C -0.05316(19) 0.0779(2) 0.1901(2)
C18 C -0.0807(2) 0.0694(3) 0.1670(2)
H24 H -0.07830 0.05040 0.15080
C19 C -0.1118(2) 0.0892(3) 0.1681(3)
H25 H -0.13030 0.08410 0.15190
C20 C -0.1160(3) 0.1153(3) 0.1920(4)
H26 H -0.13750 0.12810 0.19270
C21 C -0.0896(4) 0.1237(3) 0.2150(4)
H27 H -0.09290 0.14230 0.23140
C22 C -0.0574(3) 0.1049(3) 0.2147(3)
H28 H -0.03910 0.11050 0.23080
C23 C -0.01733(18) 0.01015(18) 0.18329(19)
H29 H -0.03180 0.00260 0.20370
H30 H -0.03060 0.00460 0.16150
C24 C 0.06800(17) -0.00733(17) 0.35345(17)
C25 C 0.0942(2) 0.0186(2) 0.3528(2)
H31 H 0.10390 0.02630 0.33090
C26 C 0.1061(2) 0.0332(2) 0.3848(2)
H32 H 0.12380 0.05090 0.38450
C27 C 0.0922(2) 0.0219(2) 0.4166(2)
H33 H 0.10090 0.03130 0.43810
C28 C 0.06560(19) -0.0032(2) 0.41720(18)
H34 H 0.05550 -0.01020 0.43900
C29 C 0.0538(2) -0.0180(2) 0.38598(19)
H35 H 0.03590 -0.03550 0.38660
C30 C 0.0589(2) -0.07340(18) 0.31608(19)
C31 C 0.0927(3) -0.0859(3) 0.3130(4)
H36 H 0.11150 -0.06980 0.30920
C32 C 0.0999(4) -0.1215(3) 0.3154(5)
H37 H 0.12360 -0.12970 0.31410
C33 C 0.0723(3) -0.1455(2) 0.3199(3)
H38 H 0.07700 -0.17010 0.32070
C34 C 0.0391(3) -0.1336(2) 0.3231(3)
H39 H 0.02040 -0.15000 0.32650
C35 C 0.0314(2) -0.0971(2) 0.3213(3)
H40 H 0.00780 -0.08890 0.32370
C36 C 0.00468(17) -0.01994(17) 0.31338(18)
H41 H -0.00600 -0.03140 0.29240
H42 H -0.00530 -0.03120 0.33470
Br1 Br 0.09481(5) 0.25000 0.25000
Br2 Br 0.17431(3) 0.17431(3) 0.32569(3)
Br3 Br 0.00000 0.00000 0.00000
Br4 Br 0.00000 0.00000 0.50000
O5 O 0.2192(7) 0.2192(7) 0.2192(7)
O6 O 0.1935(7) 0.1520(7) 0.2155(7)
O7 O 0.1253(15) 0.1253(15) 0.1253(15)
O8 O 0.2444(2) -0.0290(2) 0.2862(2)
O9 O 0.2435(4) -0.1016(4) 0.2869(4)
O10 O 0.1833(15) -0.1325(13) 0.2640(14)
O11 O 0.2919(13) -0.1535(9) 0.2998(15)
P1A P 0.01002(5) -0.05748(5) 0.18576(4)
C11A C -0.00496(17) -0.07168(18) 0.14283(17)
C12A C 0.0103(2) -0.0580(2) 0.1118(2)
H19A H 0.02750 -0.03980 0.11300
C13A C -0.0002(2) -0.0716(3) 0.07907(19)
H20A H 0.00960 -0.06230 0.05790
C14A C -0.0249(2) -0.0987(2) 0.0777(2)
H21A H -0.03150 -0.10830 0.05550
C15A C -0.0401(2) -0.1118(2) 0.1083(2)
H22A H -0.05700 -0.13030 0.10700
C16A C -0.0306(2) -0.09775(18) 0.1407(2)
H23A H -0.04170 -0.10600 0.16160
C17A C 0.05316(19) -0.0779(2) 0.1901(2)
C18A C 0.0807(2) -0.0694(3) 0.1670(2)
H24A H 0.07830 -0.05040 0.15080
C19A C 0.1118(2) -0.0892(3) 0.1681(3)
H25A H 0.13030 -0.08410 0.15190
C20A C 0.1160(3) -0.1153(3) 0.1920(4)
H26A H 0.13750 -0.12810 0.19270
C21A C 0.0896(4) -0.1237(3) 0.2150(4)
H27A H 0.09290 -0.14230 0.23140
C22A C 0.0574(3) -0.1049(3) 0.2147(3)
H28A H 0.03910 -0.11050 0.23080
C23A C 0.01733(18) -0.01015(18) 0.18329(19)
H29A H 0.03180 -0.00260 0.20370
H30A H 0.03060 -0.00460 0.16150
P2A P -0.05207(5) 0.02642(5) 0.31269(5)
C24A C -0.06800(17) 0.00733(17) 0.35345(17)
C25A C -0.0942(2) -0.0186(2) 0.3528(2)
H31A H -0.10390 -0.02630 0.33090
C26A C -0.1061(2) -0.0332(2) 0.3848(2)
H32A H -0.12380 -0.05090 0.38450
C27A C -0.0922(2) -0.0219(2) 0.4166(2)
H33A H -0.10090 -0.03130 0.43810
C28A C -0.06560(19) 0.0032(2) 0.41720(18)
H34A H -0.05550 0.01020 0.43900
C29A C -0.0538(2) 0.0180(2) 0.38598(19)
H35A H -0.03590 0.03550 0.38660
C30A C -0.0589(2) 0.07340(18) 0.31608(19)
C31A C -0.0927(3) 0.0859(3) 0.3130(4)
H36A H -0.11150 0.06980 0.30920
C32A C -0.0999(4) 0.1215(3) 0.3154(5)
H37A H -0.12360 0.12970 0.31410
C33A C -0.0723(3) 0.1455(2) 0.3199(3)
H38A H -0.07700 0.17010 0.32070
C34A C -0.0391(3) 0.1336(2) 0.3231(3)
H39A H -0.02040 0.15000 0.32650
C35A C -0.0314(2) 0.0971(2) 0.3213(3)
H40A H -0.00780 0.08890 0.32370
C36A C -0.00468(17) 0.01994(17) 0.31338(18)
H41A H 0.00600 0.03140 0.29240
H42A H 0.00530 0.03120 0.33470
Co1A Co -0.12451(2) -0.07496(2) 0.24235(2)
Au1A Au -0.02995(2) -0.07083(2) 0.22819(2)
Au2A Au -0.07937(2) 0.00271(2) 0.26538(2)
C1A C -0.0743(2) -0.13486(18) 0.26896(18)
C2A C -0.1065(2) -0.14380(18) 0.2452(2)
H1A H -0.11190 -0.16960 0.24600
C3A C -0.1001(2) -0.13178(19) 0.20764(19)
C4A C -0.0808(2) -0.1477(2) 0.3066(2)
H2A H -0.10220 -0.13650 0.31590
H3A H -0.08380 -0.17340 0.30660
H4A H -0.06060 -0.14140 0.32140
C5A C -0.0410(2) -0.1523(2) 0.2544(2)
H5A H -0.03690 -0.14400 0.23020
H6A H -0.02080 -0.14600 0.26930
H7A H -0.04400 -0.17790 0.25440
N1A N -0.13725(17) -0.12264(16) 0.25772(17)
H8A H -0.13950 -0.12380 0.28160
H9A H -0.15770 -0.13000 0.24750
O1A O -0.10822(14) -0.09906(13) 0.20119(13)
O2A O -0.0868(2) -0.15143(17) 0.18483(17)
S1A S -0.07191(5) -0.08556(4) 0.27041(4)
C6A C -0.15432(16) -0.00165(19) 0.21814(16)
C7A C -0.17799(17) -0.02849(18) 0.23731(17)
H10A H -0.20340 -0.02220 0.23420
C8A C -0.16868(19) -0.03059(19) 0.27640(17)
C9A C -0.16564(19) 0.0021(2) 0.17964(18)
H11A H -0.16510 -0.02110 0.16820
H12A H -0.18960 0.01170 0.17860
H13A H -0.14940 0.01810 0.16740
C10A C -0.15508(19) 0.0345(2) 0.23622(19)
H14A H -0.14780 0.03200 0.26090
H15A H -0.13890 0.05060 0.22410
H16A H -0.17910 0.04420 0.23520
N2A N -0.17101(15) -0.06475(16) 0.22318(15)
H17A H -0.17080 -0.06490 0.19920
H18A H -0.18740 -0.08050 0.23100
O3A O -0.14327(13) -0.05249(14) 0.28331(12)
O4A O -0.18306(15) -0.01157(15) 0.29819(14)
S2A S -0.10917(4) -0.02212(4) 0.21805(4)
#END

data_CSD_CIF_BEQCAE
_audit_creation_date 2018-02-23
_audit_creation_method CSD-ConQuest-V1
_database_code_CSD BEQCAE
_database_code_depnum_ccdc_archive 'CCDC 1578201'
_chemical_formula_sum 'C72 H103.3 Au4 Co2 F6 N4 O17.67 P4 S4 Si1'
_chemical_formula_moiety
;
C72 H84 Au4 Co2 N4 O8 P4 S4 2+,9.67(H2 O1),F6 Si1 2-
;
_journal_coden_Cambridge 1540
_journal_volume 8
_journal_year 2018
_journal_page_first 2606
_journal_name_full 'Scientific Reports '
loop_
_publ_author_name
"S.Yamashita"
"Y.Nakazawa"
"S.Yamanaka"
"M.Okumura"
"T.Kojima"
"N.Yoshinari"
"T.Konno"
_chemical_name_systematic
;
bis(\m~2~-1,2-bis(Diphenylphosphino)ethane-P,P')-tetrakis(\m~2~-D-penicillamin
ato)-di-cobalt(iii)-tetra-gold(i) hexafluorosilicate hydrate
;
_cell_volume  53458.224
_exptl_crystal_colour 'purple'
_exptl_special_details
;
Absolute configuration

;
_exptl_crystal_description 'block'
_diffrn_ambient_temperature 100
_diffrn_radiation_probe x-ray
_diffrn_source synchrotron
_diffrn_special_details
;
twin

;
#These two values have been output from a single CSD field.
_refine_ls_R_factor_gt 0.0287
_refine_ls_wR_factor_gt 0.0287
_symmetry_cell_setting cubic
_symmetry_space_group_name_H-M 'F 2 3'
_symmetry_Int_Tables_number 196
loop_
_symmetry_equiv_pos_site_id
_symmetry_equiv_pos_as_xyz
1 x,y,z
2 -x,-y,z
3 x,-y,-z
4 -x,y,-z
5 y,z,x
6 -y,-z,x
7 y,-z,-x
8 -y,z,-x
9 z,x,y
10 -z,x,-y
11 -z,-x,y
12 z,-x,-y
13 x,1/2+y,1/2+z
14 -x,1/2-y,1/2+z
15 x,1/2-y,1/2-z
16 -x,1/2+y,1/2-z
17 y,1/2+z,1/2+x
18 -y,1/2-z,1/2+x
19 y,1/2-z,1/2-x
20 -y,1/2+z,1/2-x
21 z,1/2+x,1/2+y
22 -z,1/2+x,1/2-y
23 -z,1/2-x,1/2+y
24 z,1/2-x,1/2-y
25 1/2+x,y,1/2+z
26 1/2-x,-y,1/2+z
27 1/2+x,-y,1/2-z
28 1/2-x,y,1/2-z
29 1/2+y,z,1/2+x
30 1/2-y,-z,1/2+x
31 1/2+y,-z,1/2-x
32 1/2-y,z,1/2-x
33 1/2+z,x,1/2+y
34 1/2-z,x,1/2-y
35 1/2-z,-x,1/2+y
36 1/2+z,-x,1/2-y
37 1/2+x,1/2+y,z
38 1/2-x,1/2-y,z
39 1/2+x,1/2-y,-z
40 1/2-x,1/2+y,-z
41 1/2+y,1/2+z,x
42 1/2-y,1/2-z,x
43 1/2+y,1/2-z,-x
44 1/2-y,1/2+z,-x
45 1/2+z,1/2+x,y
46 1/2-z,1/2+x,-y
47 1/2-z,1/2-x,y
48 1/2+z,1/2-x,-y
_cell_length_a 37.6708(1)
_cell_length_b 37.6708(1)
_cell_length_c 37.6708(1)
_cell_angle_alpha 90
_cell_angle_beta 90
_cell_angle_gamma 90
_cell_formula_units_Z 24
loop_
_atom_type_symbol
_atom_type_radius_bond
C 0.68
H 0.23
Au 1.36
Co 1.26
F 0.64
N 0.68
O 0.68
P 1.05
S 1.02
Si 1.20
loop_
_atom_site_label
_atom_site_type_symbol
_atom_site_fract_x
_atom_site_fract_y
_atom_site_fract_z
Co1 Co 0.12774(3) 0.07486(3) 0.24145(3)
Au1 Au 0.03205(2) 0.07087(2) 0.22871(2)
Au2 Au 0.08071(2) -0.00281(2) 0.26465(2)
C1 C 0.0785(4) 0.1353(2) 0.2687(2)
C2 C 0.1096(3) 0.1441(2) 0.2438(2)
H1 H 0.11550 0.17000 0.24410
C3 C 0.1012(4) 0.1308(2) 0.2053(3)
C4 C 0.0850(4) 0.1473(3) 0.3060(2)
H2 H 0.10500 0.13400 0.31600
H3 H 0.06370 0.14300 0.32040
H4 H 0.09050 0.17270 0.30620
C5 C 0.0446(4) 0.1523(3) 0.2551(3)
H5 H 0.04030 0.14460 0.23070
H6 H 0.02470 0.14520 0.27020
H7 H 0.04710 0.17820 0.25570
N1 N 0.1397(3) 0.12259(19) 0.2554(2)
H8 H 0.14250 0.12410 0.27940
H9 H 0.16010 0.12980 0.24470
O1 O 0.1110(2) 0.09860(17) 0.20030(16)
O2 O 0.0863(3) 0.1504(2) 0.18369(19)
S1 S 0.07525(7) 0.08572(6) 0.27005(5)
C6 C 0.15676(18) 0.0009(2) 0.21799(17)
C7 C 0.18095(18) 0.02812(19) 0.23661(18)
H10 H 0.20640 0.02130 0.23360
C8 C 0.1716(2) 0.0305(2) 0.27603(18)
C9 C 0.1683(2) -0.0032(2) 0.1790(2)
H11 H 0.16820 0.02010 0.16740
H12 H 0.19230 -0.01320 0.17810
H13 H 0.15180 -0.01910 0.16670
C10 C 0.1569(2) -0.0349(2) 0.2361(2)
H14 H 0.14110 -0.05120 0.22330
H15 H 0.18100 -0.04450 0.23620
H16 H 0.14850 -0.03230 0.26060
N2 N 0.1747(2) 0.06417(18) 0.22228(18)
H17 H 0.17460 0.06420 0.19810
H18 H 0.19120 0.07990 0.23020
O3 O 0.14615(16) 0.05259(15) 0.28296(13)
O4 O 0.18579(17) 0.01141(16) 0.29865(15)
S2 S 0.11173(5) 0.02183(5) 0.21748(4)
P1 P 0.05264(5) -0.02629(5) 0.31208(5)
P2 P -0.00898(6) 0.05800(7) 0.18652(6)
C11 C 0.0056(3) 0.0722(3) 0.1434(2)
C12 C -0.0105(3) 0.0574(4) 0.1121(3)
H19 H -0.02770 0.03910 0.11400
C13 C -0.0006(4) 0.0703(4) 0.0789(3)
H20 H -0.01050 0.06070 0.05790
C14 C 0.0243(3) 0.0979(3) 0.0773(3)
H21 H 0.03050 0.10770 0.05490
C15 C 0.0401(5) 0.1112(3) 0.1076(4)
H22 H 0.05730 0.12950 0.10580
C16 C 0.0307(4) 0.0975(3) 0.1415(3)
H23 H 0.04190 0.10600 0.16230
C17 C -0.0519(3) 0.0792(3) 0.1915(2)
C18 C -0.0799(3) 0.0707(3) 0.1692(3)
H24 H -0.07810 0.05140 0.15300
C19 C -0.1111(3) 0.0910(4) 0.1709(4)
H25 H -0.13020 0.08580 0.15520
C20 C -0.1145(3) 0.1181(3) 0.1947(4)
H26 H -0.13590 0.13140 0.19570
C21 C -0.0868(4) 0.1265(4) 0.2175(4)
H27 H -0.08930 0.14520 0.23440
C22 C -0.0550(4) 0.1072(4) 0.2155(3)
H28 H -0.03560 0.11320 0.23050
C23 C -0.0167(3) 0.0102(3) 0.1831(3)
H29 H -0.03160 0.00250 0.20330
H30 H -0.02990 0.00520 0.16100
C24 C 0.06894(19) -0.00716(18) 0.35284(18)
C25 C 0.0947(2) 0.0191(2) 0.3523(2)
H31 H 0.10410 0.02750 0.33050
C26 C 0.1066(3) 0.0329(3) 0.3844(3)
H32 H 0.12460 0.05050 0.38420
C27 C 0.0929(2) 0.0219(3) 0.4166(2)
H33 H 0.10220 0.03110 0.43810
C28 C 0.0657(2) -0.0028(3) 0.4173(2)
H34 H 0.05520 -0.00940 0.43920
C29 C 0.0541(3) -0.0177(2) 0.3860(2)
H35 H 0.03590 -0.03520 0.38650
C30 C 0.05969(19) -0.0734(2) 0.3148(2)
C31 C 0.0934(3) -0.0861(3) 0.3125(4)
H36 H 0.11230 -0.06970 0.30900
C32 C 0.1015(3) -0.1219(3) 0.3149(4)
H37 H 0.12540 -0.12990 0.31330
C33 C 0.0739(3) -0.1460(3) 0.3198(3)
H38 H 0.07880 -0.17060 0.32130
C34 C 0.0391(3) -0.1340(3) 0.3224(3)
H39 H 0.02030 -0.15060 0.32550
C35 C 0.0318(3) -0.0977(3) 0.3206(3)
H40 H 0.00810 -0.08940 0.32320
C36 C 0.0049(2) -0.0196(2) 0.3122(2)
H41 H -0.00550 -0.03120 0.29100
H42 H -0.00540 -0.03110 0.33350
Si1 Si 0.25000 0.13250(14) 0.25000
F1 F 0.2860(2) 0.1334(2) 0.2774(2)
F2 F 0.2700(5) 0.1023(6) 0.2268(4)
F3 F 0.2676(5) 0.1637(5) 0.2260(6)
Si2 Si 0.00000 0.00000 0.50000
F4 F 0.00000 0.00000 0.5452(5)
O5 O 0.00000 0.00000 0.00000
O6 O 0.29310(14) 0.20690(14) 0.29310(14)
O7 O 0.1761(11) 0.1761(11) 0.3239(11)
O8 O 0.2451(2) -0.0307(3) 0.2862(2)
O9 O 0.2442(5) -0.1047(4) 0.2866(5)
O10 O 0.1834(10) -0.1406(13) 0.2852(18)
O11 O 0.2999(18) -0.141(2) 0.298(2)
O12 O 0.25000 -0.25000 0.25000
P1A P -0.05264(5) 0.02629(5) 0.31208(5)
C24A C -0.06894(19) 0.00716(18) 0.35284(18)
C25A C -0.0947(2) -0.0191(2) 0.3523(2)
H31A H -0.10410 -0.02750 0.33050
C26A C -0.1066(3) -0.0329(3) 0.3844(3)
H32A H -0.12460 -0.05050 0.38420
C27A C -0.0929(2) -0.0219(3) 0.4166(2)
H33A H -0.10220 -0.03110 0.43810
C28A C -0.0657(2) 0.0028(3) 0.4173(2)
H34A H -0.05520 0.00940 0.43920
C29A C -0.0541(3) 0.0177(2) 0.3860(2)
H35A H -0.03590 0.03520 0.38650
C30A C -0.05969(19) 0.0734(2) 0.3148(2)
C31A C -0.0934(3) 0.0861(3) 0.3125(4)
H36A H -0.11230 0.06970 0.30900
C32A C -0.1015(3) 0.1219(3) 0.3149(4)
H37A H -0.12540 0.12990 0.31330
C33A C -0.0739(3) 0.1460(3) 0.3198(3)
H38A H -0.07880 0.17060 0.32130
C34A C -0.0391(3) 0.1340(3) 0.3224(3)
H39A H -0.02030 0.15060 0.32550
C35A C -0.0318(3) 0.0977(3) 0.3206(3)
H40A H -0.00810 0.08940 0.32320
C36A C -0.0049(2) 0.0196(2) 0.3122(2)
H41A H 0.00550 0.03120 0.29100
H42A H 0.00540 0.03110 0.33350
P2A P 0.00898(6) -0.05800(7) 0.18652(6)
C11A C -0.0056(3) -0.0722(3) 0.1434(2)
C12A C 0.0105(3) -0.0574(4) 0.1121(3)
H19A H 0.02770 -0.03910 0.11400
C13A C 0.0006(4) -0.0703(4) 0.0789(3)
H20A H 0.01050 -0.06070 0.05790
C14A C -0.0243(3) -0.0979(3) 0.0773(3)
H21A H -0.03050 -0.10770 0.05490
C15A C -0.0401(5) -0.1112(3) 0.1076(4)
H22A H -0.05730 -0.12950 0.10580
C16A C -0.0307(4) -0.0975(3) 0.1415(3)
H23A H -0.04190 -0.10600 0.16230
C17A C 0.0519(3) -0.0792(3) 0.1915(2)
C18A C 0.0799(3) -0.0707(3) 0.1692(3)
H24A H 0.07810 -0.05140 0.15300
C19A C 0.1111(3) -0.0910(4) 0.1709(4)
H25A H 0.13020 -0.08580 0.15520
C20A C 0.1145(3) -0.1181(3) 0.1947(4)
H26A H 0.13590 -0.13140 0.19570
C21A C 0.0868(4) -0.1265(4) 0.2175(4)
H27A H 0.08930 -0.14520 0.23440
C22A C 0.0550(4) -0.1072(4) 0.2155(3)
H28A H 0.03560 -0.11320 0.23050
C23A C 0.0167(3) -0.0102(3) 0.1831(3)
H29A H 0.03160 -0.00250 0.20330
H30A H 0.02990 -0.00520 0.16100
Co1A Co -0.12774(3) -0.07486(3) 0.24145(3)
Au1A Au -0.03205(2) -0.07087(2) 0.22871(2)
Au2A Au -0.08071(2) 0.00281(2) 0.26465(2)
C1A C -0.0785(4) -0.1353(2) 0.2687(2)
C2A C -0.1096(3) -0.1441(2) 0.2438(2)
H1A H -0.11550 -0.17000 0.24410
C3A C -0.1012(4) -0.1308(2) 0.2053(3)
C4A C -0.0850(4) -0.1473(3) 0.3060(2)
H2A H -0.10500 -0.13400 0.31600
H3A H -0.06370 -0.14300 0.32040
H4A H -0.09050 -0.17270 0.30620
C5A C -0.0446(4) -0.1523(3) 0.2551(3)
H5A H -0.04030 -0.14460 0.23070
H6A H -0.02470 -0.14520 0.27020
H7A H -0.04710 -0.17820 0.25570
N1A N -0.1397(3) -0.12259(19) 0.2554(2)
H8A H -0.14250 -0.12410 0.27940
H9A H -0.16010 -0.12980 0.24470
O1A O -0.1110(2) -0.09860(17) 0.20030(16)
O2A O -0.0863(3) -0.1504(2) 0.18369(19)
S1A S -0.07525(7) -0.08572(6) 0.27005(5)
C6A C -0.15676(18) -0.0009(2) 0.21799(17)
C7A C -0.18095(18) -0.02812(19) 0.23661(18)
H10A H -0.20640 -0.02130 0.23360
C8A C -0.1716(2) -0.0305(2) 0.27603(18)
C9A C -0.1683(2) 0.0032(2) 0.1790(2)
H11A H -0.16820 -0.02010 0.16740
H12A H -0.19230 0.01320 0.17810
H13A H -0.15180 0.01910 0.16670
C10A C -0.1569(2) 0.0349(2) 0.2361(2)
H14A H -0.14110 0.05120 0.22330
H15A H -0.18100 0.04450 0.23620
H16A H -0.14850 0.03230 0.26060
N2A N -0.1747(2) -0.06417(18) 0.22228(18)
H17A H -0.17460 -0.06420 0.19810
H18A H -0.19120 -0.07990 0.23020
O3A O -0.14615(16) -0.05259(15) 0.28296(13)
O4A O -0.18579(17) -0.01141(16) 0.29865(15)
S2A S -0.11173(5) -0.02183(5) 0.21748(4)
F1AA F 0.2140(2) 0.1334(2) 0.2226(2)
F2AA F 0.2300(5) 0.1023(6) 0.2732(4)
F3AA F 0.2324(5) 0.1637(5) 0.2740(6)
F4B F 0.00000 0.00000 0.4548(5)
F4P F 0.00000 0.04520 0.5000(5)
F4Q F 0.00000 -0.04520 0.5000(5)
F4FA F 0.04520 0.00000 0.5000(5)
F4GA F -0.04520 0.00000 0.5000(5)
#END

data_CSD_CIF_CAXFIT
_audit_creation_date 2017-05-26
_audit_creation_method CSD-ConQuest-V1
_database_code_CSD CAXFIT
_database_code_depnum_ccdc_archive 'CCDC 1546304'
_chemical_formula_sum 'C126 H156 N24'
_chemical_formula_moiety
;
C78 H108 N12,C48 H48 N12
;
_journal_coden_Cambridge 1350
_journal_volume 19
_journal_year 2017
_journal_page_first 4933
_journal_name_full 'CrystEngComm '
loop_
_publ_author_name
"S.Tothadi"
"M.A.Little"
"T.Hasell"
"M.E.Briggs"
"Samantha Y.Chong"
"Ming Liu"
"A.I.Cooper"
_chemical_name_systematic
;
5,8,16,19,27,30,38,41,46,49,54,57-dodecaazaheptacyclo[21.21.6.6^12,34^.1^3,43^
.1^10,14^.1^21,25^.1^32,36^]hexaconta-1,3(51),4,8,10(60),11,13,15,19,21(59),22
,24,26,30,32(52),33,35,37,41,43,45,49,53,57-tetracosaene 
4,11,17,24,30,37,43,50,55,62,69,76-dodecaaza-1,14,27,40(1,3,5)-tetrabenzenapen
tadecacyclo[25.25.12.1214,40.14,11.117,24.130,37.143,50.155,62.169,76.05,10.01
8,23.031,36.044,49.056,61.070,75]dooctacontane (non-preferred name)
;
_cell_volume  14861.534
_exptl_crystal_colour 'colorless'
_exptl_crystal_density_diffrn 0.897
_exptl_crystal_description 'prism'
_diffrn_ambient_temperature 400
#These two values have been output from a single CSD field.
_refine_ls_R_factor_gt 0.0491
_refine_ls_wR_factor_gt 0.0491
_symmetry_cell_setting cubic
_symmetry_space_group_name_H-M 'F 2 3'
_symmetry_Int_Tables_number 196
loop_
_symmetry_equiv_pos_site_id
_symmetry_equiv_pos_as_xyz
1 x,y,z
2 z,x,y
3 y,z,x
4 -y,-z,x
5 z,-x,-y
6 -y,z,-x
7 -z,-x,y
8 -z,x,-y
9 y,-z,-x
10 -x,-y,z
11 x,-y,-z
12 -x,y,-z
13 x,1/2+y,1/2+z
14 z,1/2+x,1/2+y
15 y,1/2+z,1/2+x
16 -y,1/2-z,1/2+x
17 z,1/2-x,1/2-y
18 -y,1/2+z,1/2-x
19 -z,1/2-x,1/2+y
20 -z,1/2+x,1/2-y
21 y,1/2-z,1/2-x
22 -x,1/2-y,1/2+z
23 x,1/2-y,1/2-z
24 -x,1/2+y,1/2-z
25 1/2+x,y,1/2+z
26 1/2+z,x,1/2+y
27 1/2+y,z,1/2+x
28 1/2-y,-z,1/2+x
29 1/2+z,-x,1/2-y
30 1/2-y,z,1/2-x
31 1/2-z,-x,1/2+y
32 1/2-z,x,1/2-y
33 1/2+y,-z,1/2-x
34 1/2-x,-y,1/2+z
35 1/2+x,-y,1/2-z
36 1/2-x,y,1/2-z
37 1/2+x,1/2+y,z
38 1/2+z,1/2+x,y
39 1/2+y,1/2+z,x
40 1/2-y,1/2-z,x
41 1/2+z,1/2-x,-y
42 1/2-y,1/2+z,-x
43 1/2-z,1/2-x,y
44 1/2-z,1/2+x,-y
45 1/2+y,1/2-z,-x
46 1/2-x,1/2-y,z
47 1/2+x,1/2-y,-z
48 1/2-x,1/2+y,-z
_cell_length_a 24.586(3)
_cell_length_b 24.586(3)
_cell_length_c 24.586(3)
_cell_angle_alpha 90
_cell_angle_beta 90
_cell_angle_gamma 90
_cell_formula_units_Z 4
loop_
_atom_type_symbol
_atom_type_radius_bond
C 0.68
H 0.23
N 0.68
loop_
_atom_site_label
_atom_site_type_symbol
_atom_site_fract_x
_atom_site_fract_y
_atom_site_fract_z
N1 N 0.4638(3) 0.2821(2) 0.5322(3)
C1 C 0.4371(4) 0.3598(4) 0.6138(5)
H1 H 0.46670 0.33680 0.61900
C2 C 0.4026(5) 0.3505(4) 0.5712(5)
C3 C 0.4085(4) 0.3027(4) 0.5329(5)
H2 H 0.38400 0.27380 0.54410
H3 H 0.39830 0.31380 0.49650
C4 C 0.50000 0.3173(5) 0.50000
H4 H 0.52130 0.34030 0.52390
C5 C 0.4704(2) 0.2293(2) 0.5070(4)
H5 H 0.44920 0.22850 0.47330
C6 C 0.4546(5) 0.1807(3) 0.5417(4)
H6 H 0.41590 0.18100 0.54940
H7 H 0.47440 0.18080 0.57580
C7 C 0.4701(4) 0.1306(3) 0.5070(8)
H8 H 0.46140 0.09770 0.52690
H9 H 0.44890 0.13070 0.47370
N2 N 0.2969(2) 0.2133(2) 0.4755(2)
C8 C 0.2612(3) 0.2218(2) 0.5217(2)
H10 H 0.28130 0.21560 0.55510
H11 H 0.23150 0.19580 0.52030
C9 C 0.2853(3) 0.1760(3) 0.4430(3)
H12 H 0.25450 0.15520 0.44980
C10 C 0.3179(3) 0.1633(3) 0.3944(3)
C11 C 0.3631(3) 0.1947(3) 0.3812(3)
H13 H 0.37230 0.22440 0.40280
H14? H 0.52130 0.34030 0.52390
N1G N 0.4678(3) 0.4638(2) 0.7179(3)
C1G C 0.3862(4) 0.4371(4) 0.6402(5)
H1G H 0.38100 0.46670 0.66320
C2G C 0.4288(5) 0.4026(4) 0.6495(5)
C3G C 0.4671(4) 0.4085(4) 0.6973(5)
H2G H 0.45590 0.38400 0.72620
H3G H 0.50350 0.39830 0.68620
C4D C 0.50000 0.5000(5) 0.68270
H4G H 0.47610 0.52130 0.65970
C5G C 0.4930(2) 0.4704(2) 0.7707(4)
H5G H 0.52670 0.44920 0.77150
C6G C 0.4583(5) 0.4546(3) 0.8193(4)
H6G H 0.45060 0.41590 0.81900
H7G H 0.42420 0.47440 0.81920
C7G C 0.4930(4) 0.4701(3) 0.8694(8)
H8G H 0.47310 0.46140 0.90230
H9G H 0.52630 0.44890 0.86930
N1H N 0.2821(3) 0.4678(2) 0.5362(3)
C1H C 0.3598(4) 0.3862(4) 0.5629(5)
H1H H 0.33680 0.38100 0.53330
C2H C 0.3505(5) 0.4288(4) 0.5974(5)
C3H C 0.3027(4) 0.4671(4) 0.5915(5)
H2H H 0.27380 0.45590 0.61600
H3H H 0.31380 0.50350 0.60170
C4B C 0.31730 0.5000(5) 0.50000
H4H H 0.34030 0.47610 0.47870
C5H C 0.2293(2) 0.4930(2) 0.5296(4)
H5H H 0.22850 0.52670 0.55080
C6H C 0.1807(5) 0.4583(3) 0.5454(4)
H6H H 0.18100 0.45060 0.58410
H7H H 0.18080 0.42420 0.52560
C7H C 0.1306(4) 0.4930(3) 0.5299(8)
H8H H 0.09770 0.47310 0.53860
H9H H 0.13070 0.52630 0.55110
N1K N 0.5362(3) 0.2821(2) 0.4678(3)
C1K C 0.5629(4) 0.3598(4) 0.3862(5)
H1K H 0.53330 0.33680 0.38100
C2K C 0.5974(5) 0.3505(4) 0.4288(5)
C3K C 0.5915(4) 0.3027(4) 0.4671(5)
H2K H 0.61600 0.27380 0.45590
H3K H 0.60170 0.31380 0.50350
H4K H 0.47870 0.34030 0.47610
C5K C 0.5296(2) 0.2293(2) 0.4930(4)
H5K H 0.55080 0.22850 0.52670
C6K C 0.5454(5) 0.1807(3) 0.4583(4)
H6K H 0.58410 0.18100 0.45060
H7K H 0.52560 0.18080 0.42420
C7K C 0.5299(4) 0.1306(3) 0.4930(8)
H8K H 0.53860 0.09770 0.47310
H9K H 0.55110 0.13070 0.52630
N1A N 0.5322(3) 0.4638(2) 0.2821(3)
C1A C 0.6138(4) 0.4371(4) 0.3598(5)
H1A H 0.61900 0.46670 0.33680
C2A C 0.5712(5) 0.4026(4) 0.3505(5)
C3A C 0.5329(4) 0.4085(4) 0.3027(5)
H2A H 0.54410 0.38400 0.27380
H3A H 0.49650 0.39830 0.31380
C4A C 0.50000 0.5000(5) 0.31730
H4A H 0.52390 0.52130 0.34030
C5A C 0.5070(2) 0.4704(2) 0.2293(4)
H5A H 0.47330 0.44920 0.22850
C6A C 0.5417(5) 0.4546(3) 0.1807(4)
H6A H 0.54940 0.41590 0.18100
H7A H 0.57580 0.47440 0.18080
C7A C 0.5070(4) 0.4701(3) 0.1306(8)
H8A H 0.52690 0.46140 0.09770
H9A H 0.47370 0.44890 0.13070
N1B N 0.2821(3) 0.5322(2) 0.4638(3)
C1B C 0.3598(4) 0.6138(4) 0.4371(5)
H1B H 0.33680 0.61900 0.46670
C2B C 0.3505(5) 0.5712(4) 0.4026(5)
C3B C 0.3027(4) 0.5329(4) 0.4085(5)
H2B H 0.27380 0.54410 0.38400
H3B H 0.31380 0.49650 0.39830
H4B H 0.34030 0.52390 0.52130
C5B C 0.2293(2) 0.5070(2) 0.4704(4)
H5B H 0.22850 0.47330 0.44920
C6B C 0.1807(5) 0.5417(3) 0.4546(4)
H6B H 0.18100 0.54940 0.41590
H7B H 0.18080 0.57580 0.47440
C7B C 0.1306(4) 0.5070(3) 0.4701(8)
H8B H 0.09770 0.52690 0.46140
H9B H 0.13070 0.47370 0.44890
N1C N 0.7179(3) 0.4678(2) 0.4638(3)
C1C C 0.6402(4) 0.3862(4) 0.4371(5)
H1C H 0.66320 0.38100 0.46670
C2C C 0.6495(5) 0.4288(4) 0.4026(5)
C3C C 0.6973(4) 0.4671(4) 0.4085(5)
H2C H 0.72620 0.45590 0.38400
H3C H 0.68620 0.50350 0.39830
C4C C 0.68270 0.5000(5) 0.50000
H4C H 0.65970 0.47610 0.52130
C5C C 0.7707(2) 0.4930(2) 0.4704(4)
H5C H 0.77150 0.52670 0.44920
C6C C 0.8193(5) 0.4583(3) 0.4546(4)
H6C H 0.81900 0.45060 0.41590
H7C H 0.81920 0.42420 0.47440
C7C C 0.8694(4) 0.4930(3) 0.4701(8)
H8C H 0.90230 0.47310 0.46140
H9C H 0.86930 0.52630 0.44890
N1D N 0.5322(3) 0.5362(2) 0.7179(3)
C1D C 0.6138(4) 0.5629(4) 0.6402(5)
H1D H 0.61900 0.53330 0.66320
C2D C 0.5712(5) 0.5974(4) 0.6495(5)
C3D C 0.5329(4) 0.5915(4) 0.6973(5)
H2D H 0.54410 0.61600 0.72620
H3D H 0.49650 0.60170 0.68620
H4D H 0.52390 0.47870 0.65970
C5D C 0.5070(2) 0.5296(2) 0.7707(4)
H5D H 0.47330 0.55080 0.77150
C6D C 0.5417(5) 0.5454(3) 0.8193(4)
H6D H 0.54940 0.58410 0.81900
H7D H 0.57580 0.52560 0.81920
C7D C 0.5070(4) 0.5299(3) 0.8694(8)
H8D H 0.52690 0.53860 0.90230
H9D H 0.47370 0.55110 0.86930
N1E N 0.7179(3) 0.5322(2) 0.5362(3)
C1E C 0.6402(4) 0.6138(4) 0.5629(5)
H1E H 0.66320 0.61900 0.53330
C2E C 0.6495(5) 0.5712(4) 0.5974(5)
C3E C 0.6973(4) 0.5329(4) 0.5915(5)
H2E H 0.72620 0.54410 0.61600
H3E H 0.68620 0.49650 0.60170
H4E H 0.65970 0.52390 0.47870
C5E C 0.7707(2) 0.5070(2) 0.5296(4)
H5E H 0.77150 0.47330 0.55080
C6E C 0.8193(5) 0.5417(3) 0.5454(4)
H6E H 0.81900 0.54940 0.58410
H7E H 0.81920 0.57580 0.52560
C7E C 0.8694(4) 0.5070(3) 0.5299(8)
H8E H 0.90230 0.52690 0.53860
H9E H 0.86930 0.47370 0.55110
N1F N 0.4678(3) 0.5362(2) 0.2821(3)
C1F C 0.3862(4) 0.5629(4) 0.3598(5)
H1F H 0.38100 0.53330 0.33680
C2F C 0.4288(5) 0.5974(4) 0.3505(5)
C3F C 0.4671(4) 0.5915(4) 0.3027(5)
H2F H 0.45590 0.61600 0.27380
H3F H 0.50350 0.60170 0.31380
H4F H 0.47610 0.47870 0.34030
C5F C 0.4930(2) 0.5296(2) 0.2293(4)
H5F H 0.52670 0.55080 0.22850
C6F C 0.4583(5) 0.5454(3) 0.1807(4)
H6F H 0.45060 0.58410 0.18100
H7F H 0.42420 0.52560 0.18080
C7F C 0.4930(4) 0.5299(3) 0.1306(8)
H8F H 0.47310 0.53860 0.09770
H9F H 0.52630 0.55110 0.13070
N1I N 0.5362(3) 0.7179(2) 0.5322(3)
C1I C 0.5629(4) 0.6402(4) 0.6138(5)
H1I H 0.53330 0.66320 0.61900
C2I C 0.5974(5) 0.6495(4) 0.5712(5)
C3I C 0.5915(4) 0.6973(4) 0.5329(5)
H2I H 0.61600 0.72620 0.54410
H3I H 0.60170 0.68620 0.49650
C4I C 0.50000 0.6827(5) 0.50000
H4I H 0.47870 0.65970 0.52390
C5I C 0.5296(2) 0.7707(2) 0.5070(4)
H5I H 0.55080 0.77150 0.47330
C6I C 0.5454(5) 0.8193(3) 0.5417(4)
H6I H 0.58410 0.81900 0.54940
H7I H 0.52560 0.81920 0.57580
C7I C 0.5299(4) 0.8694(3) 0.5070(8)
H8I H 0.53860 0.90230 0.52690
H9I H 0.55110 0.86930 0.47370
N1J N 0.4638(3) 0.7179(2) 0.4678(3)
C1J C 0.4371(4) 0.6402(4) 0.3862(5)
H1J H 0.46670 0.66320 0.38100
C2J C 0.4026(5) 0.6495(4) 0.4288(5)
C3J C 0.4085(4) 0.6973(4) 0.4671(5)
H2J H 0.38400 0.72620 0.45590
H3J H 0.39830 0.68620 0.50350
H4J H 0.52130 0.65970 0.47610
C5J C 0.4704(2) 0.7707(2) 0.4930(4)
H5J H 0.44920 0.77150 0.52670
C6J C 0.4546(5) 0.8193(3) 0.4583(4)
H6J H 0.41590 0.81900 0.45060
H7J H 0.47440 0.81920 0.42420
C7J C 0.4701(4) 0.8694(3) 0.4930(8)
H8J H 0.46140 0.90230 0.47310
H9J H 0.44890 0.86930 0.52630
N2P N 0.4755(2) 0.2031(2) 0.2867(2)
C8P C 0.5217(3) 0.2388(2) 0.2782(2)
H10P H 0.55510 0.21870 0.28440
H11P H 0.52030 0.26850 0.30420
C9P C 0.4430(3) 0.2147(3) 0.3240(3)
H12P H 0.44980 0.24550 0.34480
C10P C 0.3944(3) 0.1821(3) 0.3367(3)
C11P C 0.3812(3) 0.1369(3) 0.3053(3)
H13P H 0.40280 0.12770 0.27560
N2MA N 0.2867(2) 0.0245(2) 0.2969(2)
C8MA C 0.2782(3) -0.0217(2) 0.2612(2)
H10MA H 0.28440 -0.05510 0.28130
H11MA H 0.30420 -0.02030 0.23150
C9MA C 0.3240(3) 0.0570(3) 0.2853(3)
H12MA H 0.34480 0.05020 0.25450
C10MA C 0.3367(3) 0.1056(3) 0.3179(3)
C11MA C 0.3053(3) 0.1188(3) 0.3631(3)
H13MA H 0.27560 0.09720 0.37230
N2SA N 0.2031(2) 0.2867(2) 0.4755(2)
C8SA C 0.2388(3) 0.2782(2) 0.5217(2)
H10SA H 0.21870 0.28440 0.55510
H11SA H 0.26850 0.30420 0.52030
C9SA C 0.2147(3) 0.3240(3) 0.4430(3)
H12SA H 0.24550 0.34480 0.44980
C10SA C 0.1821(3) 0.3367(3) 0.3944(3)
C11SA C 0.1369(3) 0.3053(3) 0.3812(3)
H13SA H 0.12770 0.27560 0.40280
N2A N 0.4755(2) 0.2969(2) 0.2133(2)
C8A C 0.5217(3) 0.2612(2) 0.2218(2)
H10A H 0.55510 0.28130 0.21560
H11A H 0.52030 0.23150 0.19580
C9A C 0.4430(3) 0.2853(3) 0.1760(3)
H12A H 0.44980 0.25450 0.15520
C10A C 0.3944(3) 0.3179(3) 0.1633(3)
C11A C 0.3812(3) 0.3631(3) 0.1947(3)
H13A H 0.40280 0.37230 0.22440
N2B N 0.2133(2) 0.4755(2) 0.2969(2)
C8B C 0.2218(3) 0.5217(2) 0.2612(2)
H10B H 0.21560 0.55510 0.28130
H11B H 0.19580 0.52030 0.23150
C9B C 0.1760(3) 0.4430(3) 0.2853(3)
H12B H 0.15520 0.44980 0.25450
C10B C 0.1633(3) 0.3944(3) 0.3179(3)
C11B C 0.1947(3) 0.3812(3) 0.3631(3)
H13B H 0.22440 0.40280 0.37230
N2T N 0.2133(2) 0.0245(2) 0.2031(2)
C8T C 0.2218(3) -0.0217(2) 0.2388(2)
H10T H 0.21560 -0.05510 0.21870
H11T H 0.19580 -0.02030 0.26850
C9T C 0.1760(3) 0.0570(3) 0.2147(3)
H12T H 0.15520 0.05020 0.24550
C10T C 0.1633(3) 0.1056(3) 0.1821(3)
C11T C 0.1947(3) 0.1188(3) 0.1369(3)
H13T H 0.22440 0.09720 0.12770
N2CA N 0.2867(2) 0.4755(2) 0.2031(2)
C8CA C 0.2782(3) 0.5217(2) 0.2388(2)
H10CA H 0.28440 0.55510 0.21870
H11CA H 0.30420 0.52030 0.26850
C9CA C 0.3240(3) 0.4430(3) 0.2147(3)
H12CA H 0.34480 0.44980 0.24550
C10CA C 0.3367(3) 0.3944(3) 0.1821(3)
C11CA C 0.3053(3) 0.3812(3) 0.1369(3)
H13CA H 0.27560 0.40280 0.12770
N2EA N 0.0245(2) 0.2969(2) 0.2867(2)
C8EA C -0.0217(3) 0.2612(2) 0.2782(2)
H10EA H -0.05510 0.28130 0.28440
H11EA H -0.02030 0.23150 0.30420
C9EA C 0.0570(3) 0.2853(3) 0.3240(3)
H12EA H 0.05020 0.25450 0.34480
C10EA C 0.1056(3) 0.3179(3) 0.3367(3)
C11EA C 0.1188(3) 0.3631(3) 0.3053(3)
H13EA H 0.09720 0.37230 0.27560
N2PA N 0.0245(2) 0.2031(2) 0.2133(2)
C8PA C -0.0217(3) 0.2388(2) 0.2218(2)
H10PA H -0.05510 0.21870 0.21560
H11PA H -0.02030 0.26850 0.19580
C9PA C 0.0570(3) 0.2147(3) 0.1760(3)
H12PA H 0.05020 0.24550 0.15520
C10PA C 0.1056(3) 0.1821(3) 0.1633(3)
C11PA C 0.1188(3) 0.1369(3) 0.1947(3)
H13PA H 0.09720 0.12770 0.22440
N2V N 0.2969(2) 0.2867(2) 0.0245(2)
C8V C 0.2612(3) 0.2782(2) -0.0217(2)
H10V H 0.28130 0.28440 -0.05510
H11V H 0.23150 0.30420 -0.02030
C9V C 0.2853(3) 0.3240(3) 0.0570(3)
H12V H 0.25450 0.34480 0.05020
C10V C 0.3179(3) 0.3367(3) 0.1056(3)
C11V C 0.3631(3) 0.3053(3) 0.1188(3)
H13V H 0.37230 0.27560 0.09720
N2IA N 0.2031(2) 0.2133(2) 0.0245(2)
C8IA C 0.2388(3) 0.2218(2) -0.0217(2)
H10IA H 0.21870 0.21560 -0.05510
H11IA H 0.26850 0.19580 -0.02030
C9IA C 0.2147(3) 0.1760(3) 0.0570(3)
H12IA H 0.24550 0.15520 0.05020
C10IA C 0.1821(3) 0.1633(3) 0.1056(3)
C11IA C 0.1369(3) 0.1947(3) 0.1188(3)
H13IA H 0.12770 0.22440 0.09720
#END

data_CSD_CIF_HEWMOL
_audit_creation_date 1995-08-02
_audit_creation_method CSD-ConQuest-V1
_database_code_CSD HEWMOL
_chemical_formula_sum 'C48 H96 Cl12 Mn1 O24 Tl6'
_chemical_formula_moiety
;
4(C12 H24 O6 Tl1 1+),Cl4 Mn1 2-,2(Cl4 Tl1 1-)
;
_journal_coden_Cambridge 9
_journal_volume 33
_journal_year 1994
_journal_page_first 4002
_journal_name_full 'Inorg.Chem. '
loop_
_publ_author_name
"N.S.Fender"
"S.S.Finegan"
"D.Miller"
"M.Mitchell"
"I.A.Kahwa"
"F.R.Fronczek"
_chemical_name_systematic
;
tetrakis((18-Crown-6)-thallium) tetrachloro-manganese 
bis(tetrachloro-thallium)
;
_cell_volume   8984.642
_exptl_crystal_colour 'colorless'
_exptl_crystal_density_diffrn 2.043
_exptl_special_details
;
Isomorphous with the bromo copper analogue

;
_diffrn_ambient_temperature ?
_diffrn_special_details
;
The study was carried out at room temperature,in the range 283-303K

;
#These two values have been output from a single CSD field.
_refine_ls_R_factor_gt 0.036
_refine_ls_wR_factor_gt 0.036
_symmetry_cell_setting cubic
_symmetry_space_group_name_H-M 'F 2 3'
_symmetry_Int_Tables_number 196
loop_
_symmetry_equiv_pos_site_id
_symmetry_equiv_pos_as_xyz
1 x,y,z
2 -x,-y,z
3 x,-y,-z
4 z,x,y
5 -x,y,-z
6 -z,-x,y
7 z,-x,-y
8 -z,x,-y
9 y,z,x
10 y,-z,-x
11 -y,z,-x
12 -y,-z,x
13 x,1/2+y,1/2+z
14 -x,1/2-y,1/2+z
15 x,1/2-y,1/2-z
16 z,1/2+x,1/2+y
17 -x,1/2+y,1/2-z
18 -z,1/2-x,1/2+y
19 z,1/2-x,1/2-y
20 -z,1/2+x,1/2-y
21 y,1/2+z,1/2+x
22 y,1/2-z,1/2-x
23 -y,1/2+z,1/2-x
24 -y,1/2-z,1/2+x
25 1/2+x,y,1/2+z
26 1/2-x,-y,1/2+z
27 1/2+x,-y,1/2-z
28 1/2+z,x,1/2+y
29 1/2-x,y,1/2-z
30 1/2-z,-x,1/2+y
31 1/2+z,-x,1/2-y
32 1/2-z,x,1/2-y
33 1/2+y,z,1/2+x
34 1/2+y,-z,1/2-x
35 1/2-y,z,1/2-x
36 1/2-y,-z,1/2+x
37 1/2+x,1/2+y,z
38 1/2-x,1/2-y,z
39 1/2+x,1/2-y,-z
40 1/2+z,1/2+x,y
41 1/2-x,1/2+y,-z
42 1/2-z,1/2-x,y
43 1/2+z,1/2-x,-y
44 1/2-z,1/2+x,-y
45 1/2+y,1/2+z,x
46 1/2+y,1/2-z,-x
47 1/2-y,1/2+z,-x
48 1/2-y,1/2-z,x
_cell_length_a 20.789(2)
_cell_length_b 20.789(2)
_cell_length_c 20.789(2)
_cell_angle_alpha 90
_cell_angle_beta 90
_cell_angle_gamma 90
_cell_formula_units_Z 4
loop_
_atom_type_symbol
_atom_type_radius_bond
C 0.68
H 0.23
Cl 0.95
Mn 1.35
O 0.77
Tl 1.85
loop_
_atom_site_label
_atom_site_type_symbol
_atom_site_fract_x
_atom_site_fract_y
_atom_site_fract_z
Tl1 Tl 0.64966(3) 0.35040 0.64966(6)
Tl2 Tl 1.00000 1.00000 1.00000
Tl3 Tl 0.75000 0.75000 0.75000
Mn1 Mn 0.25000 0.75000 0.75000
Cl1 Cl 0.1852(2) 0.81480 0.81480
Cl2 Cl 0.9331(2) 0.9331(2) 0.9331(2)
Cl3 Cl 0.8167(2) 0.8167(2) 0.8167(2)
O1 O 0.5234(4) 0.3438(5) 0.7121(4)
O2 O 0.5914(4) 0.4600(5) 0.7244(5)
C1 C 0.5012(9) 0.4000(7) 0.7483(9)
C2 C 0.5576(7) 0.4324(7) 0.7732(7)
C3 C 0.6450(7) 0.4968(8) 0.7493(8)
C4 C 0.4752(7) 0.310(1) 0.6793(9)
H1 H 0.47420 0.38660 0.78270
H2 H 0.47780 0.42800 0.72070
H3 H 0.54460 0.46480 0.80270
H4 H 0.58420 0.40210 0.79460
H5 H 0.63000 0.53040 0.77650
H6 H 0.67330 0.46970 0.77250
H7 H 0.45580 0.33720 0.64830
H8 H 0.44350 0.29590 0.70930
O1F O 0.7121(4) 0.4766(5) 0.6562(4)
O1K O 0.6562(4) 0.2879(5) 0.5234(4)
O2F O 0.7244(4) 0.4086(5) 0.5400(5)
O2K O 0.5400(4) 0.2756(5) 0.5914(5)
C4F C 0.6793(7) 0.5248(10) 0.6900(9)
C3K C 0.5032(7) 0.2507(8) 0.6450(8)
C1F C 0.7483(9) 0.4988(7) 0.6000(9)
C1K C 0.6000(9) 0.2517(7) 0.5012(9)
C4K C 0.6900(7) 0.3207(10) 0.4752(9)
C2F C 0.7732(7) 0.4424(7) 0.5676(7)
C3F C 0.7493(7) 0.3550(8) 0.5032(8)
C2K C 0.5676(7) 0.2268(7) 0.5576(7)
H7F H 0.64830 0.54420 0.66280
H8F H 0.70930 0.55650 0.70410
H5K H 0.46960 0.22350 0.63000
H6K H 0.53030 0.22750 0.67330
H1F H 0.78270 0.52580 0.61340
H2F H 0.72070 0.52220 0.57200
H1K H 0.61340 0.21730 0.47420
H2K H 0.57200 0.27930 0.47780
H7K H 0.66280 0.35170 0.45580
H8K H 0.70410 0.29070 0.44350
H3F H 0.80270 0.45540 0.53520
H4F H 0.79460 0.41580 0.59790
H5F H 0.77650 0.37000 0.46960
H6F H 0.77250 0.32670 0.53030
H3K H 0.53520 0.19730 0.54460
H4K H 0.59790 0.20540 0.58420
Cl2A Cl 1.0669(2) 1.0669(2) 0.9331(2)
Cl2B Cl 0.9331(2) 1.0669(2) 1.0669(2)
Cl2D Cl 1.0669(2) 0.9331(2) 1.0669(2)
Cl3N Cl 0.8167(2) 0.6833(2) 0.6833(2)
Cl3BA Cl 0.6833(2) 0.8167(2) 0.6833(2)
Cl3KA Cl 0.6833(2) 0.6833(2) 0.8167(2)
Cl1N Cl 0.1852(2) 0.68520 0.68520
Cl1BA Cl 0.3148(2) 0.81480 0.68520
Cl1KA Cl 0.3148(2) 0.68520 0.81480
#END

data_CSD_CIF_HOVQAK
_audit_creation_date 2000-03-29
_audit_creation_method CSD-ConQuest-V1
_database_code_CSD HOVQAK
_database_code_depnum_ccdc_archive 'CCDC 105873; CCDC 410098'
_database_code_depnum_ccdc_fiz 'CSD 410098'
_chemical_formula_sum 'C24 H55 I4 N2 O12 Tl1'
_chemical_formula_moiety
;
2(C12 H24 O6),H4 N1 1+,H3 N1,I4 Tl1 1-
;
_journal_coden_Cambridge 155
_journal_volume 293
_journal_year 1999
_journal_page_first 234
_journal_name_full 'Inorg.Chim.Acta '
loop_
_publ_author_name
"K.V.Domasevitch"
"J.A.Rusanova"
"J.Sieler"
"V.N.Kokozay"
_chemical_name_systematic
;
Ammonium ammonia tetraiodo-thallate(iii) bis(18-crown-6) clathrate
;
_cell_volume   9614.681
_exptl_crystal_colour 'orange'
_exptl_crystal_density_diffrn 1.763
_exptl_special_details
;
isomorphous with the complex (tetrachloro-copper tetrakis(thallium 
18-crown-6) ) bis(tetrachloro- thallium)
Macrocyclic components are intermediate between (NH4(18C6) 1+) and NH3(18C6)) 
as required by the symmetry of the structure
;
_exptl_crystal_description 'octahedron'
_diffrn_ambient_temperature ?
_diffrn_special_details
;
The study was carried out at room temperature,in the range 283-303K

;
#These two values have been output from a single CSD field.
_refine_ls_R_factor_gt 0.0305
_refine_ls_wR_factor_gt 0.0305
loop_
_citation_database_id_CSD
_citation_special_details
HOVQAK01 "is a reinterpretation of this cif"
_symmetry_cell_setting cubic
_symmetry_space_group_name_H-M 'F 2 3'
_symmetry_Int_Tables_number 196
loop_
_symmetry_equiv_pos_site_id
_symmetry_equiv_pos_as_xyz
1 x,y,z
2 -x,-y,z
3 -x,y,-z
4 x,-y,-z
5 z,x,y
6 z,-x,-y
7 -z,-x,y
8 -z,x,-y
9 y,z,x
10 -y,z,-x
11 y,-z,-x
12 -y,-z,x
13 x,1/2+y,1/2+z
14 -x,1/2-y,1/2+z
15 -x,1/2+y,1/2-z
16 x,1/2-y,1/2-z
17 z,1/2+x,1/2+y
18 z,1/2-x,1/2-y
19 -z,1/2-x,1/2+y
20 -z,1/2+x,1/2-y
21 y,1/2+z,1/2+x
22 -y,1/2+z,1/2-x
23 y,1/2-z,1/2-x
24 -y,1/2-z,1/2+x
25 1/2+x,y,1/2+z
26 1/2-x,-y,1/2+z
27 1/2-x,y,1/2-z
28 1/2+x,-y,1/2-z
29 1/2+z,x,1/2+y
30 1/2+z,-x,1/2-y
31 1/2-z,-x,1/2+y
32 1/2-z,x,1/2-y
33 1/2+y,z,1/2+x
34 1/2-y,z,1/2-x
35 1/2+y,-z,1/2-x
36 1/2-y,-z,1/2+x
37 1/2+x,1/2+y,z
38 1/2-x,1/2-y,z
39 1/2-x,1/2+y,-z
40 1/2+x,1/2-y,-z
41 1/2+z,1/2+x,y
42 1/2+z,1/2-x,-y
43 1/2-z,1/2-x,y
44 1/2-z,1/2+x,-y
45 1/2+y,1/2+z,x
46 1/2-y,1/2+z,-x
47 1/2+y,1/2-z,-x
48 1/2-y,1/2-z,x
_cell_length_a 21.264(1)
_cell_length_b 21.264(1)
_cell_length_c 21.264(1)
_cell_angle_alpha 90
_cell_angle_beta 90
_cell_angle_gamma 90
_cell_formula_units_Z 8
loop_
_atom_type_symbol
_atom_type_radius_bond
C 0.68
H 0.23
I 1.40
N 0.68
O 0.68
Tl 1.55
loop_
_atom_site_label
_atom_site_type_symbol
_atom_site_fract_x
_atom_site_fract_y
_atom_site_fract_z
Tl1 Tl 0.25000 0.25000 0.25000
I1 I 0.17537(4) 0.17537(4) 0.17537(4)
N1 N 0.6640(4) 0.1640(4) 0.1640(4)
O1 O 0.5955(4) 0.0442(4) 0.2248(3)
O2 O 0.7149(7) 0.0299(5) 0.1595(4)
C1 C 0.6457(6) 0.0035(6) 0.2454(5)
H1 H 0.6336(6) -0.0280(6) 0.2755(5)
H2 H 0.6712(6) 0.0344(6) 0.2663(5)
C2 C 0.6850(6) -0.0205(5) 0.1923(6)
H3 H 0.6577(6) -0.0478(5) 0.1688(6)
H4 H 0.7195(6) -0.0449(5) 0.2080(6)
C3 C 0.7380(6) 0.0109(9) 0.1008(5)
H5 H 0.7088(6) -0.0040(9) 0.0698(5)
H6 H 0.7669(6) -0.0230(9) 0.1081(5)
C4 C 0.5641(7) 0.0753(9) 0.2746(6)
H7 H 0.5474(7) 0.0477(9) 0.3062(6)
H8 H 0.5934(7) 0.1043(9) 0.2931(6)
Tl2 Tl 0.00000 0.00000 0.00000
I2 I 0.07511(4) 0.07511(4) 0.07511(4)
H9? H 0.5000(7) 0.0000(9) 0.0000(6)
I1O I 0.17537(4) 0.32463(4) 0.32463(4)
I1Z I 0.32463(4) 0.17537(4) 0.32463(4)
I1KA I 0.32463(4) 0.32463(4) 0.17537(4)
C4NA C 0.7746(7) 0.0641(9) 0.0753(6)
O1NA O 0.7248(4) 0.0955(4) 0.0442(3)
C1NA C 0.7454(6) 0.1457(6) 0.0035(5)
H1NA H 0.7755(6) 0.1336(6) -0.0280(5)
H2NA H 0.7663(6) 0.1712(6) 0.0344(5)
C2NA C 0.6923(6) 0.1850(5) -0.0205(6)
O2NA O 0.6595(7) 0.2149(5) 0.0299(4)
C3NA C 0.6008(6) 0.2380(9) 0.0109(5)
H5NA H 0.5698(6) 0.2088(9) -0.0040(5)
H6NA H 0.6081(6) 0.2669(9) -0.0230(5)
C4FA C 0.5753(7) 0.2746(9) 0.0641(6)
O1FA O 0.5442(4) 0.2248(4) 0.0955(3)
C1FA C 0.5035(6) 0.2454(6) 0.1457(5)
H1FA H 0.4720(6) 0.2755(6) 0.1336(5)
H2FA H 0.5344(6) 0.2663(6) 0.1712(5)
C2FA C 0.4795(6) 0.1923(5) 0.1850(6)
O2FA O 0.5299(7) 0.1595(5) 0.2149(4)
C3FA C 0.5109(6) 0.1008(9) 0.2380(5)
H5FA H 0.4960(6) 0.0698(9) 0.2088(5)
H6FA H 0.4770(6) 0.1081(9) 0.2669(5)
H3FA H 0.4522(6) 0.1688(5) 0.1577(6)
H4FA H 0.4551(6) 0.2080(5) 0.2195(6)
H7FA H 0.5477(7) 0.3062(9) 0.0474(6)
H8FA H 0.6043(7) 0.2931(9) 0.0934(6)
H3NA H 0.6688(6) 0.1577(5) -0.0478(6)
H4NA H 0.7080(6) 0.2195(5) -0.0449(6)
H7NA H 0.8062(7) 0.0474(9) 0.0477(6)
H8NA H 0.7931(7) 0.0934(9) 0.1043(6)
I2A I -0.07511(4) -0.07511(4) 0.07511(4)
I2B I -0.07511(4) 0.07511(4) -0.07511(4)
I2C I 0.07511(4) -0.07511(4) -0.07511(4)
#END

data_CSD_CIF_JUKXES
_audit_creation_date 1993-04-29
_audit_creation_method CSD-ConQuest-V1
_database_code_CSD JUKXES
_chemical_formula_sum 'C48 H96 Br12 Cu1 O24 Tl6'
_chemical_formula_moiety
;
4(C12 H24 O6 Tl1 1+),Br4 Cu1 2-,2(Br4 Tl1 1-)
;
_journal_coeditor_code "IUCr HH0592"
_journal_coden_Cambridge 591
_journal_volume 49
_journal_year 1993
_journal_page_first 320
_journal_name_full 'Acta Crystallogr.,Sect.C:Cryst.Struct.Commun. '
loop_
_publ_author_name
"I.A.Kahwa"
"D.Miller"
"M.Mitchel"
"F.R.Fronczek"
_chemical_name_systematic
;
tetrakis(1,4,7,10,13,16-Hexaoxacyclo-octadecane-thallium(i)) 
tetrabromo-copper(i) bis(tetrabromo-thallium(iii))
;
_chemical_name_common
;
tetrakis((18-Crown-6)-thallium) tetrabromo-copper bis(tetrabromo-thallium)
;
_cell_volume   9125.398
_exptl_crystal_colour 'black'
_exptl_crystal_density_diffrn 2.406
_exptl_special_details
;
Isomorphous with the chloro analogue

;
_diffrn_ambient_temperature ?
_diffrn_special_details
;
The study was carried out at room temperature,in the range 283-303K

;
#These two values have been output from a single CSD field.
_refine_ls_R_factor_gt 0.047
_refine_ls_wR_factor_gt 0.047
_symmetry_cell_setting cubic
_symmetry_space_group_name_H-M 'F 2 3'
_symmetry_Int_Tables_number 196
loop_
_symmetry_equiv_pos_site_id
_symmetry_equiv_pos_as_xyz
1 x,y,z
2 x,1/2+y,1/2+z
3 1/2+x,y,1/2+z
4 1/2+x,1/2+y,z
5 z,x,y
6 y,z,x
7 1/2+z,x,1/2+y
8 1/2+y,1/2+z,x
9 1/2+z,1/2+x,y
10 y,1/2+z,1/2+x
11 z,1/2+x,1/2+y
12 1/2+y,z,1/2+x
13 x,-y,-z
14 x,1/2-y,1/2-z
15 1/2+x,-y,1/2-z
16 1/2+x,1/2-y,-z
17 z,-x,-y
18 y,-z,-x
19 1/2+z,-x,1/2-y
20 1/2+y,1/2-z,-x
21 1/2+z,1/2-x,-y
22 y,1/2-z,1/2-x
23 z,1/2-x,1/2-y
24 1/2+y,-z,1/2-x
25 -x,y,-z
26 -x,1/2+y,1/2-z
27 1/2-x,y,1/2-z
28 1/2-x,1/2+y,-z
29 -z,x,-y
30 -y,z,-x
31 1/2-z,x,1/2-y
32 1/2-y,1/2+z,-x
33 1/2-z,1/2+x,-y
34 -y,1/2+z,1/2-x
35 -z,1/2+x,1/2-y
36 1/2-y,z,1/2-x
37 -x,-y,z
38 -x,1/2-y,1/2+z
39 1/2-x,-y,1/2+z
40 1/2-x,1/2-y,z
41 -z,-x,y
42 -y,-z,x
43 1/2-z,-x,1/2+y
44 1/2-y,1/2-z,x
45 1/2-z,1/2-x,y
46 -y,1/2-z,1/2+x
47 -z,1/2-x,1/2+y
48 1/2-y,-z,1/2+x
_cell_length_a 20.897(2)
_cell_length_b 20.897(2)
_cell_length_c 20.897(2)
_cell_angle_alpha 90
_cell_angle_beta 90
_cell_angle_gamma 90
_cell_formula_units_Z 4
loop_
_atom_type_symbol
_atom_type_radius_bond
C 0.68
Br 1.21
Cu 1.47
O 1.02
Tl 1.70
loop_
_atom_site_label
_atom_site_type_symbol
_atom_site_fract_x
_atom_site_fract_y
_atom_site_fract_z
Tl1 Tl 0.65083(6) 0.34917 0.65083(6)
Tl2 Tl 1.00000 1.00000 1.00000
Tl3 Tl 0.75000 0.75000 0.75000
Cu1 Cu 0.25000 0.75000 0.75000
Br1 Br 0.1861(2) 0.8139(2) 0.8139(2)
Br2 Br 0.9299(1) 0.9299(1) 0.9299(1)
Br3 Br 0.8205(1) 0.8205(1) 0.8205(1)
O1 O 0.5260(7) 0.2877(7) 0.6530(9)
O2 O 0.5917(8) 0.2763(8) 0.5355(8)
C1 C 0.499(1) 0.260(1) 0.598(1)
C2 C 0.552(2) 0.228(1) 0.561(1)
C3 C 0.647(1) 0.256(2) 0.502(1)
C4 C 0.474(1) 0.321(1) 0.687(1)
O1P O 0.6530(7) 0.4740(7) 0.7123(9)
O1OA O 0.7123(7) 0.3470(7) 0.5260(9)
O2P O 0.5355(8) 0.4083(8) 0.7237(8)
O2OA O 0.7237(8) 0.4645(8) 0.5917(8)
C4OA C 0.679(1) 0.313(1) 0.474(1)
C3P C 0.502(1) 0.353(2) 0.744(1)
C1P C 0.598(1) 0.501(1) 0.740(1)
C4P C 0.687(1) 0.526(1) 0.679(1)
C1OA C 0.740(1) 0.402(1) 0.499(1)
C2P C 0.561(2) 0.448(1) 0.772(1)
C2OA C 0.772(2) 0.439(1) 0.552(1)
C3OA C 0.744(1) 0.498(2) 0.647(1)
Br2L Br 0.9299(1) 1.0701(1) 1.0701(1)
Br2X Br 1.0701(1) 0.9299(1) 1.0701(1)
Br2JA Br 1.0701(1) 1.0701(1) 0.9299(1)
Br3M Br 0.8205(1) 0.6795(1) 0.6795(1)
Br3Z Br 0.6795(1) 0.8205(1) 0.6795(1)
Br3MA Br 0.6795(1) 0.6795(1) 0.8205(1)
Br1H Br 0.3139(2) 0.6861(2) 0.8139(2)
Br1K Br 0.3139(2) 0.8139(2) 0.6861(2)
Br1M Br 0.1861(2) 0.6861(2) 0.6861(2)
#END

data_CSD_CIF_JUKXES01
_audit_creation_date 1995-08-02
_audit_creation_method CSD-ConQuest-V1
_database_code_CSD JUKXES01
_chemical_formula_sum 'C48 H96 Br12 Cu1 O24 Tl6'
_chemical_formula_moiety
;
4(C12 H24 O6 Tl1 1+),Br4 Cu1 2-,2(Br4 Tl1 1-)
;
_journal_coden_Cambridge 9
_journal_volume 33
_journal_year 1994
_journal_page_first 4002
_journal_name_full 'Inorg.Chem. '
loop_
_publ_author_name
"N.S.Fender"
"S.S.Finegan"
"D.Miller"
"M.Mitchell"
"I.A.Kahwa"
"F.R.Fronczek"
_chemical_name_systematic
;
tetrakis(1,4,7,10,13,16-Hexaoxacyclo-octadecane-thallium(i)) 
tetrabromo-copper(i) bis(tetrabromo-thallium(iii))
;
_chemical_name_common
;
tetrakis((18-Crown-6)-thallium) tetrabromo-copper bis(tetrabromo-thallium)
;
_cell_volume   8836.363
_exptl_crystal_colour 'black'
_exptl_crystal_density_diffrn 2.485
_exptl_special_details
;
Isomorphous with the chloro manganese analogue

;
_diffrn_ambient_temperature 115
#These two values have been output from a single CSD field.
_refine_ls_R_factor_gt 0.048
_refine_ls_wR_factor_gt 0.048
_symmetry_cell_setting cubic
_symmetry_space_group_name_H-M 'F 2 3'
_symmetry_Int_Tables_number 196
loop_
_symmetry_equiv_pos_site_id
_symmetry_equiv_pos_as_xyz
1 x,y,z
2 -x,-y,z
3 x,-y,-z
4 z,x,y
5 -x,y,-z
6 -z,-x,y
7 z,-x,-y
8 -z,x,-y
9 y,z,x
10 y,-z,-x
11 -y,z,-x
12 -y,-z,x
13 x,1/2+y,1/2+z
14 -x,1/2-y,1/2+z
15 x,1/2-y,1/2-z
16 z,1/2+x,1/2+y
17 -x,1/2+y,1/2-z
18 -z,1/2-x,1/2+y
19 z,1/2-x,1/2-y
20 -z,1/2+x,1/2-y
21 y,1/2+z,1/2+x
22 y,1/2-z,1/2-x
23 -y,1/2+z,1/2-x
24 -y,1/2-z,1/2+x
25 1/2+x,y,1/2+z
26 1/2-x,-y,1/2+z
27 1/2+x,-y,1/2-z
28 1/2+z,x,1/2+y
29 1/2-x,y,1/2-z
30 1/2-z,-x,1/2+y
31 1/2+z,-x,1/2-y
32 1/2-z,x,1/2-y
33 1/2+y,z,1/2+x
34 1/2+y,-z,1/2-x
35 1/2-y,z,1/2-x
36 1/2-y,-z,1/2+x
37 1/2+x,1/2+y,z
38 1/2-x,1/2-y,z
39 1/2+x,1/2-y,-z
40 1/2+z,1/2+x,y
41 1/2-x,1/2+y,-z
42 1/2-z,1/2-x,y
43 1/2+z,1/2-x,-y
44 1/2-z,1/2+x,-y
45 1/2+y,1/2+z,x
46 1/2+y,1/2-z,-x
47 1/2-y,1/2+z,-x
48 1/2-y,1/2-z,x
_cell_length_a 20.674(3)
_cell_length_b 20.674(3)
_cell_length_c 20.674(3)
_cell_angle_alpha 90
_cell_angle_beta 90
_cell_angle_gamma 90
_cell_formula_units_Z 4
loop_
_atom_type_symbol
_atom_type_radius_bond
C 0.68
H 0.23
Br 1.21
Cu 1.23
O 0.68
Tl 1.82
loop_
_atom_site_label
_atom_site_type_symbol
_atom_site_fract_x
_atom_site_fract_y
_atom_site_fract_z
Tl1 Tl 0.34934(5) 0.65066 0.3493(5)
Tl2 Tl 0.00000 0.00000 0.00000
Tl3 Tl 0.25000 0.25000 0.25000
Cu1 Cu 0.75000 0.25000 0.25000
Br1 Br 0.8150(2) 0.18500 0.18500
Br2 Br 0.0711(1) 0.0711(1) 0.0711(1)
Br3 Br 0.1786(1) 0.1786(1) 0.1786(1)
O1 O 0.4783(6) 0.6545(7) 0.2875(6)
O2 O 0.4048(8) 0.5398(7) 0.2745(8)
C1 C 0.495(1) 0.598(1) 0.250(1)
C2 C 0.443(1) 0.567(1) 0.223(1)
C3 C 0.351(1) 0.500(1) 0.253(1)
C4 C 0.529(1) 0.690(1) 0.319(1)
H1 H 0.51650 0.56830 0.27830
H2 H 0.52400 0.61080 0.21690
H3 H 0.41820 0.59710 0.19840
H4 H 0.45810 0.53360 0.19470
H5 H 0.32050 0.52620 0.22980
H6 H 0.36600 0.46670 0.22520
H7 H 0.55970 0.70360 0.28780
H8 H 0.54900 0.66350 0.35040
O1F O 0.2875(6) 0.5217(7) 0.3455(6)
O1K O 0.3455(6) 0.7125(7) 0.4783(6)
O2F O 0.2745(8) 0.5952(7) 0.4602(8)
O2K O 0.4602(8) 0.7255(7) 0.4048(8)
C4F C 0.319(1) 0.471(1) 0.310(1)
C3K C 0.500(1) 0.747(1) 0.351(1)
C1F C 0.250(1) 0.505(1) 0.402(1)
C1K C 0.402(1) 0.750(1) 0.495(1)
C4K C 0.310(1) 0.681(1) 0.529(1)
C2F C 0.223(1) 0.557(1) 0.433(1)
C3F C 0.253(1) 0.649(1) 0.500(1)
C2K C 0.433(1) 0.777(1) 0.443(1)
H7F H 0.28780 0.44030 0.29640
H8F H 0.35040 0.45100 0.33650
H5K H 0.47380 0.77020 0.32050
H6K H 0.53330 0.77480 0.36600
H1F H 0.27830 0.48350 0.43170
H2F H 0.21690 0.47600 0.38920
H1K H 0.43170 0.72170 0.51650
H2K H 0.38920 0.78310 0.52400
H7K H 0.29640 0.71220 0.55970
H8K H 0.33650 0.64960 0.54900
H3F H 0.19840 0.58180 0.40290
H4F H 0.19470 0.54190 0.46640
H5F H 0.22980 0.67950 0.47380
H6F H 0.22520 0.63400 0.53330
H3K H 0.40290 0.80160 0.41820
H4K H 0.46640 0.80530 0.45810
Br2A Br -0.0711(1) -0.0711(1) 0.0711(1)
Br2B Br 0.0711(1) -0.0711(1) -0.0711(1)
Br2D Br -0.0711(1) 0.0711(1) -0.0711(1)
Br3N Br 0.1786(1) 0.3214(1) 0.3214(1)
Br3BA Br 0.3214(1) 0.1786(1) 0.3214(1)
Br3KA Br 0.3214(1) 0.3214(1) 0.1786(1)
Br1N Br 0.8150(2) 0.31500 0.31500
Br1BA Br 0.6850(2) 0.18500 0.31500
Br1KA Br 0.6850(2) 0.31500 0.18500
#END

data_CSD_CIF_JUMHUU
_audit_creation_date 1993-07-09
_audit_creation_method CSD-ConQuest-V1
_database_code_CSD JUMHUU
_chemical_formula_sum 'C48 H96 Cl12 Cu1 O24 Tl6'
_chemical_formula_moiety
;
C48 H96 Cl4 Cu1 O24 Tl4 2+,2(Cl4 Tl1 1-)
;
_journal_coden_Cambridge 9
_journal_volume 31
_journal_year 1992
_journal_page_first 3963
_journal_name_full 'Inorg.Chem. '
loop_
_publ_author_name
"I.A.Kahwa"
"D.Miller"
"M.Mitchel"
"F.R.Fronczek"
"R.G.Goodrich"
"D.J.Williams"
"C.A.O'Mahoney"
"A.M.Z.Slawin"
"S.V.Ley"
"C.J.Groombridge"
_chemical_name_systematic
;
tetrakis((\m~4~-Chloro)-(18-crown-6)-thallium)-copper 
bis(tetrachloro-thallium)
;
_cell_volume   8905.785
_exptl_crystal_density_diffrn 2.068
_diffrn_ambient_temperature ?
_diffrn_special_details
;
The study was carried out at room temperature,in the range 283-303K

;
#These two values have been output from a single CSD field.
_refine_ls_R_factor_gt 0.038
_refine_ls_wR_factor_gt 0.038
_symmetry_cell_setting cubic
_symmetry_space_group_name_H-M 'F 2 3'
_symmetry_Int_Tables_number 196
loop_
_symmetry_equiv_pos_site_id
_symmetry_equiv_pos_as_xyz
1 x,y,z
2 x,1/2+y,1/2+z
3 1/2+x,y,1/2+z
4 1/2+x,1/2+y,z
5 z,x,y
6 y,z,x
7 1/2+z,x,1/2+y
8 1/2+y,1/2+z,x
9 1/2+z,1/2+x,y
10 y,1/2+z,1/2+x
11 z,1/2+x,1/2+y
12 1/2+y,z,1/2+x
13 x,-y,-z
14 x,1/2-y,1/2-z
15 1/2+x,-y,1/2-z
16 1/2+x,1/2-y,-z
17 z,-x,-y
18 y,-z,-x
19 1/2+z,-x,1/2-y
20 1/2+y,1/2-z,-x
21 1/2+z,1/2-x,-y
22 y,1/2-z,1/2-x
23 z,1/2-x,1/2-y
24 1/2+y,-z,1/2-x
25 -x,y,-z
26 -x,1/2+y,1/2-z
27 1/2-x,y,1/2-z
28 1/2-x,1/2+y,-z
29 -z,x,-y
30 -y,z,-x
31 1/2-z,x,1/2-y
32 1/2-y,1/2+z,-x
33 1/2-z,1/2+x,-y
34 -y,1/2+z,1/2-x
35 -z,1/2+x,1/2-y
36 1/2-y,z,1/2-x
37 -x,-y,z
38 -x,1/2-y,1/2+z
39 1/2-x,-y,1/2+z
40 1/2-x,1/2-y,z
41 -z,-x,y
42 -y,-z,x
43 1/2-z,-x,1/2+y
44 1/2-y,1/2-z,x
45 1/2-z,1/2-x,y
46 -y,1/2-z,1/2+x
47 -z,1/2-x,1/2+y
48 1/2-y,-z,1/2+x
_cell_length_a 20.728(2)
_cell_length_b 20.728(2)
_cell_length_c 20.728(2)
_cell_angle_alpha 90
_cell_angle_beta 90
_cell_angle_gamma 90
_cell_formula_units_Z 4
loop_
_atom_type_symbol
_atom_type_radius_bond
C 0.68
H 0.23
Cl 0.99
Cu 1.02
O 0.68
Tl 1.93
loop_
_atom_site_label
_atom_site_type_symbol
_atom_site_fract_x
_atom_site_fract_y
_atom_site_fract_z
Tl1 Tl 0.65048(4) 0.34952 0.65048(4)
Tl2 Tl 1.00000 1.00000 1.00000
Tl3 Tl 0.75000 0.75000 0.75000
Cu1 Cu 0.75000 0.25000 0.75000
Cl1 Cl 0.6886(2) 0.31140 0.81140
Cl2 Cl 0.9335(2) 0.9335(2) 0.9335(2)
Cl3 Cl 0.8168(2) 0.8168(2) 0.8168(2)
O1 O 0.5236(4) 0.2872(5) 0.6555(5)
O2 O 0.5926(5) 0.2742(5) 0.5388(5)
C1 C 0.5009(9) 0.2523(9) 0.5993(7)
C2 C 0.5567(8) 0.2240(8) 0.5648(8)
C3 C 0.6455(7) 0.2542(8) 0.5016(9)
C4 C 0.4746(7) 0.3198(8) 0.6881(8)
H1 H 0.48100 0.28200 0.57000
H2 H 0.47000 0.22100 0.61200
H3 H 0.58200 0.20200 0.59600
H4 H 0.54300 0.19400 0.53200
H5 H 0.63100 0.22700 0.46800
H6 H 0.67400 0.23100 0.52900
H7 H 0.45500 0.35000 0.66000
H8 H 0.44300 0.28900 0.70300
Cl1G Cl 0.8114(2) 0.31140 0.68860
Cl1M Cl 0.6886(2) 0.18860 0.68860
O1P O 0.6555(4) 0.4764(5) 0.7128(5)
O1OA O 0.7128(4) 0.3445(5) 0.5236(5)
O2P O 0.5388(5) 0.4074(5) 0.7258(5)
O2OA O 0.7258(5) 0.4612(5) 0.5926(5)
Tl1J Tl 0.65048(4) 0.15048 0.84952(4)
Tl1W Tl 0.84952(4) 0.34952 0.84952(4)
Cl1J Cl 0.8114(2) 0.18860 0.81140
C4OA C 0.6802(7) 0.3119(8) 0.4746(8)
C3P C 0.5016(7) 0.3545(8) 0.7458(9)
Tl1G Tl 0.84952(4) 0.15048 0.65048(4)
C1P C 0.5993(9) 0.4991(9) 0.7477(7)
C4P C 0.6881(7) 0.5254(8) 0.6802(8)
C1OA C 0.7477(9) 0.4007(9) 0.5009(7)
C2P C 0.5648(8) 0.4433(8) 0.7760(8)
C2OA C 0.7760(8) 0.4352(8) 0.5567(8)
C3OA C 0.7458(7) 0.4984(8) 0.6455(9)
O1J O 0.6555(4) 0.0236(5) 0.7872(5)
O1M O 0.5236(4) 0.2128(5) 0.8445(5)
O1GA O 0.7128(4) 0.1555(5) 0.9764(5)
O2J O 0.5388(5) 0.0926(5) 0.7742(5)
O2M O 0.5926(5) 0.2258(5) 0.9612(5)
O2GA O 0.7258(5) 0.0388(5) 0.9074(5)
O1W O 0.7872(4) 0.3445(5) 0.9764(5)
O1Z O 0.9764(4) 0.2872(5) 0.8445(5)
O1PA O 0.8445(4) 0.4764(5) 0.7872(5)
O2W O 0.7742(5) 0.4612(5) 0.9074(5)
O2Z O 0.9074(5) 0.2742(5) 0.9612(5)
O2PA O 0.9612(5) 0.4074(5) 0.7742(5)
H7OA H 0.65000 0.34000 0.45500
H8OA H 0.71100 0.29700 0.44300
H5P H 0.46800 0.36900 0.77300
H6P H 0.52900 0.32600 0.76900
O1G O 0.7872(4) 0.1555(5) 0.5236(5)
O1FA O 0.8445(4) 0.0236(5) 0.7128(5)
O1MA O 0.9764(4) 0.2128(5) 0.6555(5)
O2G O 0.7742(5) 0.0388(5) 0.5926(5)
O2FA O 0.9612(5) 0.0926(5) 0.7258(5)
O2MA O 0.9074(5) 0.2258(5) 0.5388(5)
H1P H 0.57000 0.51900 0.71800
H2P H 0.61200 0.53000 0.77900
H7P H 0.66000 0.54500 0.65000
H8P H 0.70300 0.55700 0.71100
H1OA H 0.71800 0.43000 0.48100
H2OA H 0.77900 0.38800 0.47000
H3P H 0.59600 0.41800 0.79800
H4P H 0.53200 0.45700 0.80600
H3OA H 0.79800 0.40400 0.58200
H4OA H 0.80600 0.46800 0.54300
H5OA H 0.77300 0.53200 0.63100
H6OA H 0.76900 0.47100 0.67400
C1J C 0.5993(9) 0.0009(9) 0.7523(7)
C4J C 0.6881(7) -0.0254(8) 0.8198(8)
C1M C 0.5009(9) 0.2477(9) 0.9007(7)
C4M C 0.4746(7) 0.1802(8) 0.8119(8)
C1GA C 0.7477(9) 0.0993(9) 0.9991(7)
C4GA C 0.6802(7) 0.1881(8) 1.0254(8)
C2J C 0.5648(8) 0.0567(8) 0.7240(8)
C3J C 0.5016(7) 0.1455(8) 0.7542(9)
C2M C 0.5567(8) 0.2760(8) 0.9352(8)
C3M C 0.6455(7) 0.2458(8) 0.9984(9)
C2GA C 0.7760(8) 0.0648(8) 0.9433(8)
C3GA C 0.7458(7) 0.0016(8) 0.8545(9)
C1W C 0.7523(9) 0.4007(9) 0.9991(7)
C4W C 0.8198(7) 0.3119(8) 1.0254(8)
C1Z C 0.9991(9) 0.2523(9) 0.9007(7)
C4Z C 1.0254(7) 0.3198(8) 0.8119(8)
C1PA C 0.9007(9) 0.4991(9) 0.7523(7)
C4PA C 0.8119(7) 0.5254(8) 0.8198(8)
C2W C 0.7240(8) 0.4352(8) 0.9433(8)
C3W C 0.7542(7) 0.4984(8) 0.8545(9)
C2Z C 0.9433(8) 0.2240(8) 0.9352(8)
C3Z C 0.8545(7) 0.2542(8) 0.9984(9)
C2PA C 0.9352(8) 0.4433(8) 0.7240(8)
C3PA C 0.9984(7) 0.3545(8) 0.7542(9)
C1G C 0.7523(9) 0.0993(9) 0.5009(7)
C4G C 0.8198(7) 0.1881(8) 0.4746(8)
C1FA C 0.9007(9) 0.0009(9) 0.7477(7)
C4FA C 0.8119(7) -0.0254(8) 0.6802(8)
C1MA C 0.9991(9) 0.2477(9) 0.5993(7)
C4MA C 1.0254(7) 0.1802(8) 0.6881(8)
C2G C 0.7240(8) 0.0648(8) 0.5567(8)
C3G C 0.7542(7) 0.0016(8) 0.6455(9)
C2FA C 0.9352(8) 0.0567(8) 0.7760(8)
C3FA C 0.9984(7) 0.1455(8) 0.7458(9)
C2MA C 0.9433(8) 0.2760(8) 0.5648(8)
C3MA C 0.8545(7) 0.2458(8) 0.5016(9)
H1J H 0.57000 -0.01900 0.78200
H2J H 0.61200 -0.03000 0.72100
H7J H 0.66000 -0.04500 0.85000
H8J H 0.70300 -0.05700 0.78900
H1M H 0.48100 0.21800 0.93000
H2M H 0.47000 0.27900 0.88800
H7M H 0.45500 0.15000 0.84000
H8M H 0.44300 0.21100 0.79700
H1GA H 0.71800 0.07000 1.01900
H2GA H 0.77900 0.11200 1.03000
H7GA H 0.65000 0.16000 1.04500
H8GA H 0.71100 0.20300 1.05700
H3J H 0.59600 0.08200 0.70200
H4J H 0.53200 0.04300 0.69400
H5J H 0.46800 0.13100 0.72700
H6J H 0.52900 0.17400 0.73100
H3M H 0.58200 0.29800 0.90400
H4M H 0.54300 0.30600 0.96800
H5M H 0.63100 0.27300 1.03200
H6M H 0.67400 0.26900 0.97100
H3GA H 0.79800 0.09600 0.91800
H4GA H 0.80600 0.03200 0.95700
H5GA H 0.77300 -0.03200 0.86900
H6GA H 0.76900 0.02900 0.82600
H1W H 0.78200 0.43000 1.01900
H2W H 0.72100 0.38800 1.03000
H7W H 0.85000 0.34000 1.04500
H8W H 0.78900 0.29700 1.05700
H1Z H 1.01900 0.28200 0.93000
H2Z H 1.03000 0.22100 0.88800
H7Z H 1.04500 0.35000 0.84000
H8Z H 1.05700 0.28900 0.79700
H1PA H 0.93000 0.51900 0.78200
H2PA H 0.88800 0.53000 0.72100
H7PA H 0.84000 0.54500 0.85000
H8PA H 0.79700 0.55700 0.78900
H3W H 0.70200 0.40400 0.91800
H4W H 0.69400 0.46800 0.95700
H5W H 0.72700 0.53200 0.86900
H6W H 0.73100 0.47100 0.82600
H3Z H 0.91800 0.20200 0.90400
H4Z H 0.95700 0.19400 0.96800
H5Z H 0.86900 0.22700 1.03200
H6Z H 0.82600 0.23100 0.97100
H3PA H 0.90400 0.41800 0.70200
H4PA H 0.96800 0.45700 0.69400
H5PA H 1.03200 0.36900 0.72700
H6PA H 0.97100 0.32600 0.73100
H1G H 0.78200 0.07000 0.48100
H2G H 0.72100 0.11200 0.47000
H7G H 0.85000 0.16000 0.45500
H8G H 0.78900 0.20300 0.44300
H1FA H 0.93000 -0.01900 0.71800
H2FA H 0.88800 -0.03000 0.77900
H7FA H 0.84000 -0.04500 0.65000
H8FA H 0.79700 -0.05700 0.71100
H1MA H 1.01900 0.21800 0.57000
H2MA H 1.03000 0.27900 0.61200
H7MA H 1.04500 0.15000 0.66000
H8MA H 1.05700 0.21100 0.70300
H3G H 0.70200 0.09600 0.58200
H4G H 0.69400 0.03200 0.54300
H5G H 0.72700 -0.03200 0.63100
H6G H 0.73100 0.02900 0.67400
H3FA H 0.90400 0.08200 0.79800
H4FA H 0.96800 0.04300 0.80600
H5FA H 1.03200 0.13100 0.77300
H6FA H 0.97100 0.17400 0.76900
H3MA H 0.91800 0.29800 0.59600
H4MA H 0.95700 0.30600 0.53200
H5MA H 0.86900 0.27300 0.46800
H6MA H 0.82600 0.26900 0.52900
Cl2L Cl 0.9335(2) 1.0665(2) 1.0665(2)
Cl2X Cl 1.0665(2) 0.9335(2) 1.0665(2)
Cl2JA Cl 1.0665(2) 1.0665(2) 0.9335(2)
Cl3M Cl 0.8168(2) 0.6832(2) 0.6832(2)
Cl3Z Cl 0.6832(2) 0.8168(2) 0.6832(2)
Cl3MA Cl 0.6832(2) 0.6832(2) 0.8168(2)
#END

data_CSD_CIF_KUSLUH
_audit_creation_date 2015-09-22
_audit_creation_method CSD-ConQuest-V1
_database_code_CSD KUSLUH
_database_code_depnum_ccdc_archive 'CCDC 1426409'
_chemical_formula_sum 'C276 H312 Cd25 Cl4 O6 P4 Se41'
_chemical_formula_moiety
;
C180 H204 Cd17 P4 Se28,C72 H60 Cd8 Cl4 Se13,6(C4 H8 O1)
;
_journal_coden_Cambridge 4
_journal_volume 123
_journal_year 2001
_journal_page_first 2354
_journal_name_full 'J.Am.Chem.Soc. '
loop_
_publ_author_name
"V.N.Soloviev"
"A.Eichhofer"
"D.Fenske"
"U.Banin"
_chemical_name_systematic
;
tetrakis(\m-Selenido)-tetracosakis(\m~2~-benzeneselenato)-tetrakis(tri-n-propy
lphosphine)-heptadeca-cadmium 
(\m-selenido)-dodecakis(\m-benzeneselenato)-tetrachloro-octa-cadmium 
tetrahydrofuran solvate
;
_cell_volume  34850.427
_exptl_crystal_colour 'colorless'
_exptl_crystal_density_diffrn 1.853
_exptl_crystal_description 'cubic'
_diffrn_ambient_temperature 200
#These two values have been output from a single CSD field.
_refine_ls_R_factor_gt 0.0476
_refine_ls_wR_factor_gt 0.0476
_symmetry_cell_setting cubic
_symmetry_space_group_name_H-M 'F 2 3'
_symmetry_Int_Tables_number 196
loop_
_symmetry_equiv_pos_site_id
_symmetry_equiv_pos_as_xyz
1 x,y,z
2 -x,-y,z
3 -x,y,-z
4 x,-y,-z
5 z,x,y
6 z,-x,-y
7 -z,-x,y
8 -z,x,-y
9 y,z,x
10 -y,z,-x
11 y,-z,-x
12 -y,-z,x
13 x,1/2+y,1/2+z
14 -x,1/2-y,1/2+z
15 -x,1/2+y,1/2-z
16 x,1/2-y,1/2-z
17 z,1/2+x,1/2+y
18 z,1/2-x,1/2-y
19 -z,1/2-x,1/2+y
20 -z,1/2+x,1/2-y
21 y,1/2+z,1/2+x
22 -y,1/2+z,1/2-x
23 y,1/2-z,1/2-x
24 -y,1/2-z,1/2+x
25 1/2+x,y,1/2+z
26 1/2-x,-y,1/2+z
27 1/2-x,y,1/2-z
28 1/2+x,-y,1/2-z
29 1/2+z,x,1/2+y
30 1/2+z,-x,1/2-y
31 1/2-z,-x,1/2+y
32 1/2-z,x,1/2-y
33 1/2+y,z,1/2+x
34 1/2-y,z,1/2-x
35 1/2+y,-z,1/2-x
36 1/2-y,-z,1/2+x
37 1/2+x,1/2+y,z
38 1/2-x,1/2-y,z
39 1/2-x,1/2+y,-z
40 1/2+x,1/2-y,-z
41 1/2+z,1/2+x,y
42 1/2+z,1/2-x,-y
43 1/2-z,1/2-x,y
44 1/2-z,1/2+x,-y
45 1/2+y,1/2+z,x
46 1/2-y,1/2+z,-x
47 1/2+y,1/2-z,-x
48 1/2-y,1/2-z,x
_cell_length_a 32.664(4)
_cell_length_b 32.664(4)
_cell_length_c 32.664(4)
_cell_angle_alpha 90
_cell_angle_beta 90
_cell_angle_gamma 90
_cell_formula_units_Z 4
loop_
_atom_type_symbol
_atom_type_radius_bond
C 0.68
Cd 1.44
Cl 0.99
O 0.68
P 1.05
Se 1.22
loop_
_atom_site_label
_atom_site_type_symbol
_atom_site_fract_x
_atom_site_fract_y
_atom_site_fract_z
Cd1 Cd 0.50000 0.00000 0.00000
Cd2 Cd 0.41302(2) -0.09810(2) 0.00137(2)
Cd3 Cd 0.38038(2) -0.11962(2) -0.11962(2)
Se1 Se 0.45361(3) -0.04639(3) -0.04639(3)
Se2 Se 0.36053(3) -0.04595(3) 0.03446(3)
Se3 Se 0.36459(3) -0.14501(4) -0.04426(4)
P1 P 0.33505(14) -0.16495(14) -0.16495(14)
C1 C 0.3255(3) -0.0784(3) 0.0688(3)
C2 C 0.2905(4) -0.0586(4) 0.0829(4)
C3 C 0.2624(5) -0.0806(5) 0.1079(5)
C4 C 0.2712(5) -0.1205(5) 0.1175(5)
C5 C 0.3062(4) -0.1403(5) 0.1022(5)
C6 C 0.3329(4) -0.1186(4) 0.0788(4)
C7 C 0.3934(3) -0.1968(3) -0.0460(4)
C8 C 0.3698(4) -0.2319(4) -0.0392(4)
C9 C 0.3907(6) -0.2692(6) -0.0398(6)
C10 C 0.4323(7) -0.2720(7) -0.0447(7)
C11 C 0.4566(5) -0.2377(6) -0.0505(6)
C12 C 0.4349(4) -0.1984(4) -0.0519(4)
C13 C 0.2836(12) -0.1831(14) -0.1332(13)
C14 C 0.2656(10) -0.1528(11) -0.1264(10)
C15 C 0.2220(11) -0.1678(11) -0.0968(11)
Cd4 Cd 0.07169(3) 0.07169(3) 0.07169(3)
Cd5 Cd 0.04621(2) -0.04621(2) 0.04621(2)
Se4 Se 0.00000 0.00000 0.00000
Se5 Se 0.11057(3) 0.00099(4) 0.05895(3)
Cl1 Cl 0.11485(12) 0.11485(12) 0.11485(12)
C16 C 0.1249(3) -0.0188(3) 0.1133(3)
C17 C 0.1476(4) -0.0549(4) 0.1145(4)
C18 C 0.1583(5) -0.0698(5) 0.1526(5)
C19 C 0.1485(5) -0.0496(6) 0.1885(5)
C20 C 0.1265(6) -0.0119(5) 0.1863(6)
C21 C 0.1140(5) 0.0025(6) 0.1474(5)
O1 O 0.25000 -0.25000 0.0067(19)
C22 C 0.2304(10) -0.2577(13) 0.0774(12)
C23 C 0.2161(15) -0.2725(15) 0.0376(16)
C13FA C 0.3169(12) -0.1332(14) -0.2164(13)
C14FA C 0.3472(10) -0.1264(11) -0.2344(10)
C15FA C 0.3322(11) -0.0968(11) -0.2780(11)
C13NA C 0.3668(12) -0.2164(14) -0.1831(13)
C14NA C 0.3736(10) -0.2344(11) -0.1528(10)
C15NA C 0.4032(11) -0.2780(11) -0.1678(11)
Cd2A Cd 0.58698(2) 0.09810(2) 0.00137(2)
Cd3A Cd 0.61962(2) 0.11962(2) -0.11962(2)
Se1A Se 0.54639(3) 0.04639(3) -0.04639(3)
Se2A Se 0.63947(3) 0.04595(3) 0.03446(3)
Se3A Se 0.63541(3) 0.14501(4) -0.04426(4)
P1A P 0.66495(14) 0.16495(14) -0.16495(14)
C1A C 0.6745(3) 0.0784(3) 0.0688(3)
C2A C 0.7095(4) 0.0586(4) 0.0829(4)
C3A C 0.7376(5) 0.0806(5) 0.1079(5)
C4A C 0.7288(5) 0.1205(5) 0.1175(5)
C5A C 0.6938(4) 0.1403(5) 0.1022(5)
C6A C 0.6671(4) 0.1186(4) 0.0788(4)
C7A C 0.6066(3) 0.1968(3) -0.0460(4)
C8A C 0.6302(4) 0.2319(4) -0.0392(4)
C9A C 0.6093(6) 0.2692(6) -0.0398(6)
C10A C 0.5677(7) 0.2720(7) -0.0447(7)
C11A C 0.5434(5) 0.2377(6) -0.0505(6)
C12A C 0.5651(4) 0.1984(4) -0.0519(4)
C13A C 0.7164(12) 0.1831(14) -0.1332(13)
C14A C 0.7344(10) 0.1528(11) -0.1264(10)
C15A C 0.7780(11) 0.1678(11) -0.0968(11)
C13IA C 0.6831(12) 0.1332(14) -0.2164(13)
C14IA C 0.6528(10) 0.1264(11) -0.2344(10)
C15IA C 0.6678(11) 0.0968(11) -0.2780(11)
C13PA C 0.6332(12) 0.2164(14) -0.1831(13)
C14PA C 0.6264(10) 0.2344(11) -0.1528(10)
C15PA C 0.5968(11) 0.2780(11) -0.1678(11)
Cd2B Cd 0.58698(2) -0.09810(2) -0.00137(2)
Cd3B Cd 0.61962(2) -0.11962(2) 0.11962(2)
Se1B Se 0.54639(3) -0.04639(3) 0.04639(3)
Se2B Se 0.63947(3) -0.04595(3) -0.03446(3)
Se3B Se 0.63541(3) -0.14501(4) 0.04426(4)
P1B P 0.66495(14) -0.16495(14) 0.16495(14)
C1B C 0.6745(3) -0.0784(3) -0.0688(3)
C2B C 0.7095(4) -0.0586(4) -0.0829(4)
C3B C 0.7376(5) -0.0806(5) -0.1079(5)
C4B C 0.7288(5) -0.1205(5) -0.1175(5)
C5B C 0.6938(4) -0.1403(5) -0.1022(5)
C6B C 0.6671(4) -0.1186(4) -0.0788(4)
C7B C 0.6066(3) -0.1968(3) 0.0460(4)
C8B C 0.6302(4) -0.2319(4) 0.0392(4)
C9B C 0.6093(6) -0.2692(6) 0.0398(6)
C10B C 0.5677(7) -0.2720(7) 0.0447(7)
C11B C 0.5434(5) -0.2377(6) 0.0505(6)
C12B C 0.5651(4) -0.1984(4) 0.0519(4)
C13B C 0.7164(12) -0.1831(14) 0.1332(13)
C14B C 0.7344(10) -0.1528(11) 0.1264(10)
C15B C 0.7780(11) -0.1678(11) 0.0968(11)
C13GA C 0.6831(12) -0.1332(14) 0.2164(13)
C14GA C 0.6528(10) -0.1264(11) 0.2344(10)
C15GA C 0.6678(11) -0.0968(11) 0.2780(11)
C13QA C 0.6332(12) -0.2164(14) 0.1831(13)
C14QA C 0.6264(10) -0.2344(11) 0.1528(10)
C15QA C 0.5968(11) -0.2780(11) 0.1678(11)
Cd2C Cd 0.41302(2) 0.09810(2) -0.00137(2)
Cd3C Cd 0.38038(2) 0.11962(2) 0.11962(2)
Se1C Se 0.45361(3) 0.04639(3) 0.04639(3)
Se2C Se 0.36053(3) 0.04595(3) -0.03446(3)
Se3C Se 0.36459(3) 0.14501(4) 0.04426(4)
P1C P 0.33505(14) 0.16495(14) 0.16495(14)
C1C C 0.3255(3) 0.0784(3) -0.0688(3)
C2C C 0.2905(4) 0.0586(4) -0.0829(4)
C3C C 0.2624(5) 0.0806(5) -0.1079(5)
C4C C 0.2712(5) 0.1205(5) -0.1175(5)
C5C C 0.3062(4) 0.1403(5) -0.1022(5)
C6C C 0.3329(4) 0.1186(4) -0.0788(4)
C7C C 0.3934(3) 0.1968(3) 0.0460(4)
C8C C 0.3698(4) 0.2319(4) 0.0392(4)
C9C C 0.3907(6) 0.2692(6) 0.0398(6)
C10C C 0.4323(7) 0.2720(7) 0.0447(7)
C11C C 0.4566(5) 0.2377(6) 0.0505(6)
C12C C 0.4349(4) 0.1984(4) 0.0519(4)
C13C C 0.2836(12) 0.1831(14) 0.1332(13)
C14C C 0.2656(10) 0.1528(11) 0.1264(10)
C15C C 0.2220(11) 0.1678(11) 0.0968(11)
C13HA C 0.3169(12) 0.1332(14) 0.2164(13)
C14HA C 0.3472(10) 0.1264(11) 0.2344(10)
C15HA C 0.3322(11) 0.0968(11) 0.2780(11)
C13OA C 0.3668(12) 0.2164(14) 0.1831(13)
C14OA C 0.3736(10) 0.2344(11) 0.1528(10)
C15OA C 0.4032(11) 0.2780(11) 0.1678(11)
Cd2FA Cd 0.40190(2) 0.00137(2) -0.08698(2)
Se2FA Se 0.45405(3) 0.03446(3) -0.13947(3)
Se3FA Se 0.35499(3) -0.04426(4) -0.13541(4)
C1FA C 0.4216(3) 0.0688(3) -0.1745(3)
C2FA C 0.4414(4) 0.0829(4) -0.2095(4)
C3FA C 0.4194(5) 0.1079(5) -0.2376(5)
C4FA C 0.3795(5) 0.1175(5) -0.2288(5)
C5FA C 0.3597(4) 0.1022(5) -0.1938(5)
C6FA C 0.3814(4) 0.0788(4) -0.1671(4)
C7FA C 0.3032(3) -0.0460(3) -0.1066(4)
C8FA C 0.2681(4) -0.0392(4) -0.1302(4)
C9FA C 0.2308(6) -0.0398(6) -0.1093(6)
C10FA C 0.2280(7) -0.0447(7) -0.0677(7)
C11FA C 0.2623(5) -0.0505(6) -0.0434(6)
C12FA C 0.3016(4) -0.0519(4) -0.0651(4)
Cd2GA Cd 0.59810(2) 0.00137(2) 0.08698(2)
Se2GA Se 0.54595(3) 0.03446(3) 0.13947(3)
Se3GA Se 0.64501(3) -0.04426(4) 0.13541(4)
C1GA C 0.5784(3) 0.0688(3) 0.1745(3)
C2GA C 0.5586(4) 0.0829(4) 0.2095(4)
C3GA C 0.5806(5) 0.1079(5) 0.2376(5)
C4GA C 0.6205(5) 0.1175(5) 0.2288(5)
C5GA C 0.6403(4) 0.1022(5) 0.1938(5)
C6GA C 0.6186(4) 0.0788(4) 0.1671(4)
C7GA C 0.6968(3) -0.0460(3) 0.1066(4)
C8GA C 0.7319(4) -0.0392(4) 0.1302(4)
C9GA C 0.7692(6) -0.0398(6) 0.1093(6)
C10GA C 0.7720(7) -0.0447(7) 0.0677(7)
C11GA C 0.7377(5) -0.0505(6) 0.0434(6)
C12GA C 0.6984(4) -0.0519(4) 0.0651(4)
Cd2HA Cd 0.40190(2) -0.00137(2) 0.08698(2)
Se2HA Se 0.45405(3) -0.03446(3) 0.13947(3)
Se3HA Se 0.35499(3) 0.04426(4) 0.13541(4)
C1HA C 0.4216(3) -0.0688(3) 0.1745(3)
C2HA C 0.4414(4) -0.0829(4) 0.2095(4)
C3HA C 0.4194(5) -0.1079(5) 0.2376(5)
C4HA C 0.3795(5) -0.1175(5) 0.2288(5)
C5HA C 0.3597(4) -0.1022(5) 0.1938(5)
C6HA C 0.3814(4) -0.0788(4) 0.1671(4)
C7HA C 0.3032(3) 0.0460(3) 0.1066(4)
C8HA C 0.2681(4) 0.0392(4) 0.1302(4)
C9HA C 0.2308(6) 0.0398(6) 0.1093(6)
C10HA C 0.2280(7) 0.0447(7) 0.0677(7)
C11HA C 0.2623(5) 0.0505(6) 0.0434(6)
C12HA C 0.3016(4) 0.0519(4) 0.0651(4)
Cd2IA Cd 0.59810(2) -0.00137(2) -0.08698(2)
Se2IA Se 0.54595(3) -0.03446(3) -0.13947(3)
Se3IA Se 0.64501(3) 0.04426(4) -0.13541(4)
C1IA C 0.5784(3) -0.0688(3) -0.1745(3)
C2IA C 0.5586(4) -0.0829(4) -0.2095(4)
C3IA C 0.5806(5) -0.1079(5) -0.2376(5)
C4IA C 0.6205(5) -0.1175(5) -0.2288(5)
C5IA C 0.6403(4) -0.1022(5) -0.1938(5)
C6IA C 0.6186(4) -0.0788(4) -0.1671(4)
C7IA C 0.6968(3) 0.0460(3) -0.1066(4)
C8IA C 0.7319(4) 0.0392(4) -0.1302(4)
C9IA C 0.7692(6) 0.0398(6) -0.1093(6)
C10IA C 0.7720(7) 0.0447(7) -0.0677(7)
C11IA C 0.7377(5) 0.0505(6) -0.0434(6)
C12IA C 0.6984(4) 0.0519(4) -0.0651(4)
Cd2NA Cd 0.50137(2) -0.08698(2) -0.09810(2)
Se2NA Se 0.53446(3) -0.13947(3) -0.04595(3)
Se3NA Se 0.45574(3) -0.13541(4) -0.14501(4)
C1NA C 0.5688(3) -0.1745(3) -0.0784(3)
C2NA C 0.5829(4) -0.2095(4) -0.0586(4)
C3NA C 0.6079(5) -0.2376(5) -0.0806(5)
C4NA C 0.6175(5) -0.2288(5) -0.1205(5)
C5NA C 0.6022(4) -0.1938(5) -0.1403(5)
C6NA C 0.5788(4) -0.1671(4) -0.1186(4)
C7NA C 0.4540(3) -0.1066(3) -0.1968(4)
C8NA C 0.4608(4) -0.1302(4) -0.2319(4)
C9NA C 0.4602(6) -0.1093(6) -0.2692(6)
C10NA C 0.4553(7) -0.0677(7) -0.2720(7)
C11NA C 0.4495(5) -0.0434(6) -0.2377(6)
C12NA C 0.4481(4) -0.0651(4) -0.1984(4)
Cd2OA Cd 0.50137(2) 0.08698(2) 0.09810(2)
Se2OA Se 0.53446(3) 0.13947(3) 0.04595(3)
Se3OA Se 0.45574(3) 0.13541(4) 0.14501(4)
C1OA C 0.5688(3) 0.1745(3) 0.0784(3)
C2OA C 0.5829(4) 0.2095(4) 0.0586(4)
C3OA C 0.6079(5) 0.2376(5) 0.0806(5)
C4OA C 0.6175(5) 0.2288(5) 0.1205(5)
C5OA C 0.6022(4) 0.1938(5) 0.1403(5)
C6OA C 0.5788(4) 0.1671(4) 0.1186(4)
C7OA C 0.4540(3) 0.1066(3) 0.1968(4)
C8OA C 0.4608(4) 0.1302(4) 0.2319(4)
C9OA C 0.4602(6) 0.1093(6) 0.2692(6)
C10OA C 0.4553(7) 0.0677(7) 0.2720(7)
C11OA C 0.4495(5) 0.0434(6) 0.2377(6)
C12OA C 0.4481(4) 0.0651(4) 0.1984(4)
Cd2PA Cd 0.49863(2) 0.08698(2) -0.09810(2)
Se2PA Se 0.46554(3) 0.13947(3) -0.04595(3)
Se3PA Se 0.54426(3) 0.13541(4) -0.14501(4)
C1PA C 0.4312(3) 0.1745(3) -0.0784(3)
C2PA C 0.4171(4) 0.2095(4) -0.0586(4)
C3PA C 0.3921(5) 0.2376(5) -0.0806(5)
C4PA C 0.3825(5) 0.2288(5) -0.1205(5)
C5PA C 0.3978(4) 0.1938(5) -0.1403(5)
C6PA C 0.4212(4) 0.1671(4) -0.1186(4)
C7PA C 0.5460(3) 0.1066(3) -0.1968(4)
C8PA C 0.5392(4) 0.1302(4) -0.2319(4)
C9PA C 0.5398(6) 0.1093(6) -0.2692(6)
C10PA C 0.5447(7) 0.0677(7) -0.2720(7)
C11PA C 0.5505(5) 0.0434(6) -0.2377(6)
C12PA C 0.5519(4) 0.0651(4) -0.1984(4)
Cd2QA Cd 0.49863(2) -0.08698(2) 0.09810(2)
Se2QA Se 0.46554(3) -0.13947(3) 0.04595(3)
Se3QA Se 0.54426(3) -0.13541(4) 0.14501(4)
C1QA C 0.4312(3) -0.1745(3) 0.0784(3)
C2QA C 0.4171(4) -0.2095(4) 0.0586(4)
C3QA C 0.3921(5) -0.2376(5) 0.0806(5)
C4QA C 0.3825(5) -0.2288(5) 0.1205(5)
C5QA C 0.3978(4) -0.1938(5) 0.1403(5)
C6QA C 0.4212(4) -0.1671(4) 0.1186(4)
C7QA C 0.5460(3) -0.1066(3) 0.1968(4)
C8QA C 0.5392(4) -0.1302(4) 0.2319(4)
C9QA C 0.5398(6) -0.1093(6) 0.2692(6)
C10QA C 0.5447(7) -0.0677(7) 0.2720(7)
C11QA C 0.5505(5) -0.0434(6) 0.2377(6)
C12QA C 0.5519(4) -0.0651(4) 0.1984(4)
Cd4A Cd -0.07169(3) -0.07169(3) 0.07169(3)
Cd5A Cd -0.04621(2) 0.04621(2) 0.04621(2)
Se5A Se -0.11057(3) -0.00099(4) 0.05895(3)
Cl1A Cl -0.11485(12) -0.11485(12) 0.11485(12)
C16A C -0.1249(3) 0.0188(3) 0.1133(3)
C17A C -0.1476(4) 0.0549(4) 0.1145(4)
C18A C -0.1583(5) 0.0698(5) 0.1526(5)
C19A C -0.1485(5) 0.0496(6) 0.1885(5)
C20A C -0.1265(6) 0.0119(5) 0.1863(6)
C21A C -0.1140(5) -0.0025(6) 0.1474(5)
Cd4B Cd -0.07169(3) 0.07169(3) -0.07169(3)
Cd5B Cd -0.04621(2) -0.04621(2) -0.04621(2)
Se5B Se -0.11057(3) 0.00099(4) -0.05895(3)
Cl1B Cl -0.11485(12) 0.11485(12) -0.11485(12)
C16B C -0.1249(3) -0.0188(3) -0.1133(3)
C17B C -0.1476(4) -0.0549(4) -0.1145(4)
C18B C -0.1583(5) -0.0698(5) -0.1526(5)
C19B C -0.1485(5) -0.0496(6) -0.1885(5)
C20B C -0.1265(6) -0.0119(5) -0.1863(6)
C21B C -0.1140(5) 0.0025(6) -0.1474(5)
Cd4C Cd 0.07169(3) -0.07169(3) -0.07169(3)
Cd5C Cd 0.04621(2) 0.04621(2) -0.04621(2)
Se5C Se 0.11057(3) -0.00099(4) -0.05895(3)
Cl1C Cl 0.11485(12) -0.11485(12) -0.11485(12)
C16C C 0.1249(3) 0.0188(3) -0.1133(3)
C17C C 0.1476(4) 0.0549(4) -0.1145(4)
C18C C 0.1583(5) 0.0698(5) -0.1526(5)
C19C C 0.1485(5) 0.0496(6) -0.1885(5)
C20C C 0.1265(6) 0.0119(5) -0.1863(6)
C21C C 0.1140(5) -0.0025(6) -0.1474(5)
Se5D Se 0.05895(3) 0.11057(4) 0.00099(3)
C16D C 0.1133(3) 0.1249(3) -0.0188(3)
C17D C 0.1145(4) 0.1476(4) -0.0549(4)
C18D C 0.1526(5) 0.1583(5) -0.0698(5)
C19D C 0.1885(5) 0.1485(6) -0.0496(5)
C20D C 0.1863(6) 0.1265(5) -0.0119(6)
C21D C 0.1474(5) 0.1140(6) 0.0025(5)
Se5E Se 0.05895(3) -0.11057(4) -0.00099(3)
C16E C 0.1133(3) -0.1249(3) 0.0188(3)
C17E C 0.1145(4) -0.1476(4) 0.0549(4)
C18E C 0.1526(5) -0.1583(5) 0.0698(5)
C19E C 0.1885(5) -0.1485(6) 0.0496(5)
C20E C 0.1863(6) -0.1265(5) 0.0119(6)
C21E C 0.1474(5) -0.1140(6) -0.0025(5)
Se5F Se -0.05895(3) -0.11057(4) 0.00099(3)
C16F C -0.1133(3) -0.1249(3) -0.0188(3)
C17F C -0.1145(4) -0.1476(4) -0.0549(4)
C18F C -0.1526(5) -0.1583(5) -0.0698(5)
C19F C -0.1885(5) -0.1485(6) -0.0496(5)
C20F C -0.1863(6) -0.1265(5) -0.0119(6)
C21F C -0.1474(5) -0.1140(6) 0.0025(5)
Se5G Se -0.05895(3) 0.11057(4) -0.00099(3)
C16G C -0.1133(3) 0.1249(3) 0.0188(3)
C17G C -0.1145(4) 0.1476(4) 0.0549(4)
C18G C -0.1526(5) 0.1583(5) 0.0698(5)
C19G C -0.1885(5) 0.1485(6) 0.0496(5)
C20G C -0.1863(6) 0.1265(5) 0.0119(6)
C21G C -0.1474(5) 0.1140(6) -0.0025(5)
Se5H Se 0.00099(3) 0.05895(4) 0.11057(3)
C16H C -0.0188(3) 0.1133(3) 0.1249(3)
C17H C -0.0549(4) 0.1145(4) 0.1476(4)
C18H C -0.0698(5) 0.1526(5) 0.1583(5)
C19H C -0.0496(5) 0.1885(6) 0.1485(5)
C20H C -0.0119(6) 0.1863(5) 0.1265(6)
C21H C 0.0025(5) 0.1474(6) 0.1140(5)
Se5I Se -0.00099(3) 0.05895(4) -0.11057(3)
C16I C 0.0188(3) 0.1133(3) -0.1249(3)
C17I C 0.0549(4) 0.1145(4) -0.1476(4)
C18I C 0.0698(5) 0.1526(5) -0.1583(5)
C19I C 0.0496(5) 0.1885(6) -0.1485(5)
C20I C 0.0119(6) 0.1863(5) -0.1265(6)
C21I C -0.0025(5) 0.1474(6) -0.1140(5)
Se5J Se 0.00099(3) -0.05895(4) -0.11057(3)
C16J C -0.0188(3) -0.1133(3) -0.1249(3)
C17J C -0.0549(4) -0.1145(4) -0.1476(4)
C18J C -0.0698(5) -0.1526(5) -0.1583(5)
C19J C -0.0496(5) -0.1885(6) -0.1485(5)
C20J C -0.0119(6) -0.1863(5) -0.1265(6)
C21J C 0.0025(5) -0.1474(6) -0.1140(5)
Se5K Se -0.00099(3) -0.05895(4) 0.11057(3)
C16K C 0.0188(3) -0.1133(3) 0.1249(3)
C17K C 0.0549(4) -0.1145(4) 0.1476(4)
C18K C 0.0698(5) -0.1526(5) 0.1583(5)
C19K C 0.0496(5) -0.1885(6) 0.1485(5)
C20K C 0.0119(6) -0.1863(5) 0.1265(6)
C21K C -0.0025(5) -0.1474(6) 0.1140(5)
C22KA C 0.2696(10) -0.2423(13) 0.0774(12)
C23KA C 0.2839(15) -0.2275(15) 0.0376(16)
#END

data_CSD_CIF_NISWER
_audit_creation_date 1998-06-18
_audit_creation_method CSD-ConQuest-V1
_database_code_CSD NISWER
_database_code_depnum_ccdc_journal 182/545
_chemical_formula_sum 'C72 H88 B4 N24 Tl4'
_chemical_formula_moiety
;
C72 H88 B4 N24 Tl4
;
_journal_coden_Cambridge 182
_journal_year 1997
_journal_page_first 1691
_journal_name_full 'Chem.Commun. '
loop_
_publ_author_name
"A.L.Rheingold"
"L.M.Liable-Sands"
"S.Trofimenko"
_chemical_name_systematic
;
tetrakis((Hydrogen tris(3-cyclopropylpyrazolyl)borato)-thallium(i))
;
_chemical_melting_point 417.15
_cell_volume   8628.243
_exptl_crystal_colour 'colorless'
_exptl_crystal_density_diffrn 1.655
_exptl_special_details
;
Melting point range 417.15-419.15K

;
_exptl_crystal_description 'block'
_diffrn_ambient_temperature 173
#These two values have been output from a single CSD field.
_refine_ls_R_factor_gt 0.0217
_refine_ls_wR_factor_gt 0.0217
_symmetry_cell_setting cubic
_symmetry_space_group_name_H-M 'F 2 3'
_symmetry_Int_Tables_number 196
loop_
_symmetry_equiv_pos_site_id
_symmetry_equiv_pos_as_xyz
1 x,y,z
2 -x,-y,z
3 x,-y,-z
4 z,x,y
5 -x,y,-z
6 -z,-x,y
7 z,-x,-y
8 -z,x,-y
9 y,z,x
10 y,-z,-x
11 -y,z,-x
12 -y,-z,x
13 x,1/2+y,1/2+z
14 -x,1/2-y,1/2+z
15 x,1/2-y,1/2-z
16 z,1/2+x,1/2+y
17 -x,1/2+y,1/2-z
18 -z,1/2-x,1/2+y
19 z,1/2-x,1/2-y
20 -z,1/2+x,1/2-y
21 y,1/2+z,1/2+x
22 y,1/2-z,1/2-x
23 -y,1/2+z,1/2-x
24 -y,1/2-z,1/2+x
25 1/2+x,y,1/2+z
26 1/2-x,-y,1/2+z
27 1/2+x,-y,1/2-z
28 1/2+z,x,1/2+y
29 1/2-x,y,1/2-z
30 1/2-z,-x,1/2+y
31 1/2+z,-x,1/2-y
32 1/2-z,x,1/2-y
33 1/2+y,z,1/2+x
34 1/2+y,-z,1/2-x
35 1/2-y,z,1/2-x
36 1/2-y,-z,1/2+x
37 1/2+x,1/2+y,z
38 1/2-x,1/2-y,z
39 1/2+x,1/2-y,-z
40 1/2+z,1/2+x,y
41 1/2-x,1/2+y,-z
42 1/2-z,1/2-x,y
43 1/2+z,1/2-x,-y
44 1/2-z,1/2+x,-y
45 1/2+y,1/2+z,x
46 1/2+y,1/2-z,-x
47 1/2-y,1/2+z,-x
48 1/2-y,1/2-z,x
_cell_length_a 20.5104(2)
_cell_length_b 20.5104(2)
_cell_length_c 20.5104(2)
_cell_angle_alpha 90
_cell_angle_beta 90
_cell_angle_gamma 90
_cell_formula_units_Z 4
loop_
_atom_type_symbol
_atom_type_radius_bond
C 0.68
H 0.23
B 0.83
N 0.68
Tl 1.63
loop_
_atom_site_label
_atom_site_type_symbol
_atom_site_fract_x
_atom_site_fract_y
_atom_site_fract_z
Tl1 Tl 0.43713(1) 0.43713(1) 0.43713(1)
N1 N 0.4517(2) 0.3833(2) 0.3270(2)
N2 N 0.4008(2) 0.3497(2) 0.2995(2)
C1 C 0.4169(2) 0.3318(2) 0.2374(2)
C2 C 0.4783(2) 0.3554(2) 0.2236(2)
C3 C 0.4988(2) 0.3874(2) 0.2811(2)
C4 C 0.5605(3) 0.4221(3) 0.2948(2)
C5 C 0.6217(3) 0.4059(3) 0.2569(3)
C6 C 0.5881(3) 0.4689(3) 0.2436(3)
B1 B 0.3359(2) 0.3359(2) 0.3359(2)
H1 H 0.3902(2) 0.3073(2) 0.2086(2)
H2 H 0.5018(2) 0.3510(2) 0.1840(2)
H3 H 0.5674(3) 0.4353(3) 0.3412(2)
H4 H 0.6637(3) 0.4075(3) 0.2805(3)
H5 H 0.6187(3) 0.3714(3) 0.2233(3)
H6 H 0.5642(3) 0.4733(3) 0.2019(3)
H7 H 0.6093(3) 0.5094(3) 0.2592(3)
H8 H 0.3015(28) 0.3015(28) 0.3015(28)
Tl1A Tl 0.56287(1) 0.56287(1) 0.43713(1)
Tl1D Tl 0.56287(1) 0.43713(1) 0.56287(1)
Tl1B Tl 0.43713(1) 0.56287(1) 0.56287(1)
N1D N 0.5483(2) 0.3833(2) 0.6730(2)
N2D N 0.5992(2) 0.3497(2) 0.7005(2)
C1D C 0.5831(2) 0.3318(2) 0.7626(2)
C2D C 0.5217(2) 0.3554(2) 0.7764(2)
C3D C 0.5012(2) 0.3874(2) 0.7189(2)
C4D C 0.4395(3) 0.4221(3) 0.7052(2)
C5D C 0.3783(3) 0.4059(3) 0.7431(3)
C6D C 0.4119(3) 0.4689(3) 0.7564(3)
H3D H 0.4326(3) 0.4353(3) 0.6588(2)
H6D H 0.4358(3) 0.4733(3) 0.7981(3)
H7D H 0.3907(3) 0.5094(3) 0.7408(3)
H4D H 0.3363(3) 0.4075(3) 0.7195(3)
H5D H 0.3813(3) 0.3714(3) 0.7767(3)
H2D H 0.4982(2) 0.3510(2) 0.8160(2)
H1D H 0.6098(2) 0.3073(2) 0.7914(2)
B1D B 0.6641(2) 0.3359(2) 0.6641(2)
N2G N 0.7005(2) 0.4008(2) 0.6503(2)
N1G N 0.6730(2) 0.4517(2) 0.6167(2)
N1J N 0.6167(2) 0.3270(2) 0.5483(2)
N2J N 0.6503(2) 0.2995(2) 0.5992(2)
C1J C 0.6682(2) 0.2374(2) 0.5831(2)
C2J C 0.6446(2) 0.2236(2) 0.5217(2)
C3J C 0.6126(2) 0.2811(2) 0.5012(2)
C4J C 0.5779(3) 0.2948(3) 0.4395(2)
C5J C 0.5941(3) 0.2569(3) 0.3783(3)
C6J C 0.5311(3) 0.2436(3) 0.4119(3)
H3J H 0.5647(3) 0.3412(3) 0.4326(2)
H6J H 0.5267(3) 0.2019(3) 0.4358(3)
H7J H 0.4906(3) 0.2592(3) 0.3907(3)
H4J H 0.5925(3) 0.2805(3) 0.3363(3)
H5J H 0.6286(3) 0.2233(3) 0.3813(3)
H2J H 0.6490(2) 0.1840(2) 0.4982(2)
H1J H 0.6927(2) 0.2086(2) 0.6098(2)
H8D H 0.6985(28) 0.3015(28) 0.6985(28)
C3G C 0.7189(2) 0.4988(2) 0.6126(2)
C2G C 0.7764(2) 0.4783(2) 0.6446(2)
C1G C 0.7626(2) 0.4169(2) 0.6682(2)
H1G H 0.7914(2) 0.3902(2) 0.6927(2)
H2G H 0.8160(2) 0.5018(2) 0.6490(2)
C4G C 0.7052(3) 0.5605(3) 0.5779(2)
C5G C 0.7431(3) 0.6217(3) 0.5941(3)
C6G C 0.7564(3) 0.5881(3) 0.5311(3)
H3G H 0.6588(3) 0.5674(3) 0.5647(2)
H6G H 0.7981(3) 0.5642(3) 0.5267(3)
H7G H 0.7408(3) 0.6093(3) 0.4906(3)
H4G H 0.7195(3) 0.6637(3) 0.5925(3)
H5G H 0.7767(3) 0.6187(3) 0.6286(3)
N2C N 0.2995(2) 0.4008(2) 0.3497(2)
N1C N 0.3270(2) 0.4517(2) 0.3833(2)
N1H N 0.3833(2) 0.3270(2) 0.4517(2)
N2H N 0.3497(2) 0.2995(2) 0.4008(2)
C1H C 0.3318(2) 0.2374(2) 0.4169(2)
C2H C 0.3554(2) 0.2236(2) 0.4783(2)
C3H C 0.3874(2) 0.2811(2) 0.4988(2)
C4H C 0.4221(3) 0.2948(3) 0.5605(2)
C5H C 0.4059(3) 0.2569(3) 0.6217(3)
C6H C 0.4689(3) 0.2436(3) 0.5881(3)
H3H H 0.4353(3) 0.3412(3) 0.5674(2)
H6H H 0.4733(3) 0.2019(3) 0.5642(3)
H7H H 0.5094(3) 0.2592(3) 0.6093(3)
H4H H 0.4075(3) 0.2805(3) 0.6637(3)
H5H H 0.3714(3) 0.2233(3) 0.6187(3)
H2H H 0.3510(2) 0.1840(2) 0.5018(2)
H1H H 0.3073(2) 0.2086(2) 0.3902(2)
C3C C 0.2811(2) 0.4988(2) 0.3874(2)
C2C C 0.2236(2) 0.4783(2) 0.3554(2)
C1C C 0.2374(2) 0.4169(2) 0.3318(2)
H1C H 0.2086(2) 0.3902(2) 0.3073(2)
H2C H 0.1840(2) 0.5018(2) 0.3510(2)
C4C C 0.2948(3) 0.5605(3) 0.4221(2)
C5C C 0.2569(3) 0.6217(3) 0.4059(3)
C6C C 0.2436(3) 0.5881(3) 0.4689(3)
H3C H 0.3412(3) 0.5674(3) 0.4353(2)
H6C H 0.2019(3) 0.5642(3) 0.4733(3)
H7C H 0.2592(3) 0.6093(3) 0.5094(3)
H4C H 0.2805(3) 0.6637(3) 0.4075(3)
H5C H 0.2233(3) 0.6187(3) 0.3714(3)
N1A N 0.5483(2) 0.6167(2) 0.3270(2)
N2A N 0.5992(2) 0.6503(2) 0.2995(2)
C1A C 0.5831(2) 0.6682(2) 0.2374(2)
C2A C 0.5217(2) 0.6446(2) 0.2236(2)
C3A C 0.5012(2) 0.6126(2) 0.2811(2)
C4A C 0.4395(3) 0.5779(3) 0.2948(2)
C5A C 0.3783(3) 0.5941(3) 0.2569(3)
C6A C 0.4119(3) 0.5311(3) 0.2436(3)
H3A H 0.4326(3) 0.5647(3) 0.3412(2)
H6A H 0.4358(3) 0.5267(3) 0.2019(3)
H7A H 0.3907(3) 0.4906(3) 0.2592(3)
H4A H 0.3363(3) 0.5925(3) 0.2805(3)
H5A H 0.3813(3) 0.6286(3) 0.2233(3)
H2A H 0.4982(2) 0.6490(2) 0.1840(2)
H1A H 0.6098(2) 0.6927(2) 0.2086(2)
B1A B 0.6641(2) 0.6641(2) 0.3359(2)
N2E N 0.7005(2) 0.5992(2) 0.3497(2)
N1E N 0.6730(2) 0.5483(2) 0.3833(2)
N1K N 0.6167(2) 0.6730(2) 0.4517(2)
N2K N 0.6503(2) 0.7005(2) 0.4008(2)
C1K C 0.6682(2) 0.7626(2) 0.4169(2)
C2K C 0.6446(2) 0.7764(2) 0.4783(2)
C3K C 0.6126(2) 0.7189(2) 0.4988(2)
C4K C 0.5779(3) 0.7052(3) 0.5605(2)
C5K C 0.5941(3) 0.7431(3) 0.6217(3)
C6K C 0.5311(3) 0.7564(3) 0.5881(3)
H3K H 0.5647(3) 0.6588(3) 0.5674(2)
H6K H 0.5267(3) 0.7981(3) 0.5642(3)
H7K H 0.4906(3) 0.7408(3) 0.6093(3)
H4K H 0.5925(3) 0.7195(3) 0.6637(3)
H5K H 0.6286(3) 0.7767(3) 0.6187(3)
H2K H 0.6490(2) 0.8160(2) 0.5018(2)
H1K H 0.6927(2) 0.7914(2) 0.3902(2)
H8A H 0.6985(28) 0.6985(28) 0.3015(28)
C3E C 0.7189(2) 0.5012(2) 0.3874(2)
C2E C 0.7764(2) 0.5217(2) 0.3554(2)
C1E C 0.7626(2) 0.5831(2) 0.3318(2)
H1E H 0.7914(2) 0.6098(2) 0.3073(2)
H2E H 0.8160(2) 0.4982(2) 0.3510(2)
C4E C 0.7052(3) 0.4395(3) 0.4221(2)
C5E C 0.7431(3) 0.3783(3) 0.4059(3)
C6E C 0.7564(3) 0.4119(3) 0.4689(3)
H3E H 0.6588(3) 0.4326(3) 0.4353(2)
H6E H 0.7981(3) 0.4358(3) 0.4733(3)
H7E H 0.7408(3) 0.3907(3) 0.5094(3)
H4E H 0.7195(3) 0.3363(3) 0.4075(3)
H5E H 0.7767(3) 0.3813(3) 0.3714(3)
N1B N 0.4517(2) 0.6167(2) 0.6730(2)
N2B N 0.4008(2) 0.6503(2) 0.7005(2)
C1B C 0.4169(2) 0.6682(2) 0.7626(2)
C2B C 0.4783(2) 0.6446(2) 0.7764(2)
C3B C 0.4988(2) 0.6126(2) 0.7189(2)
C4B C 0.5605(3) 0.5779(3) 0.7052(2)
C5B C 0.6217(3) 0.5941(3) 0.7431(3)
C6B C 0.5881(3) 0.5311(3) 0.7564(3)
H3B H 0.5674(3) 0.5647(3) 0.6588(2)
H6B H 0.5642(3) 0.5267(3) 0.7981(3)
H7B H 0.6093(3) 0.4906(3) 0.7408(3)
H4B H 0.6637(3) 0.5925(3) 0.7195(3)
H5B H 0.6187(3) 0.6286(3) 0.7767(3)
H2B H 0.5018(2) 0.6490(2) 0.8160(2)
H1B H 0.3902(2) 0.6927(2) 0.7914(2)
B1B B 0.3359(2) 0.6641(2) 0.6641(2)
N2F N 0.2995(2) 0.5992(2) 0.6503(2)
N1F N 0.3270(2) 0.5483(2) 0.6167(2)
N1I N 0.3833(2) 0.6730(2) 0.5483(2)
N2I N 0.3497(2) 0.7005(2) 0.5992(2)
C1I C 0.3318(2) 0.7626(2) 0.5831(2)
C2I C 0.3554(2) 0.7764(2) 0.5217(2)
C3I C 0.3874(2) 0.7189(2) 0.5012(2)
C4I C 0.4221(3) 0.7052(3) 0.4395(2)
C5I C 0.4059(3) 0.7431(3) 0.3783(3)
C6I C 0.4689(3) 0.7564(3) 0.4119(3)
H3I H 0.4353(3) 0.6588(3) 0.4326(2)
H6I H 0.4733(3) 0.7981(3) 0.4358(3)
H7I H 0.5094(3) 0.7408(3) 0.3907(3)
H4I H 0.4075(3) 0.7195(3) 0.3363(3)
H5I H 0.3714(3) 0.7767(3) 0.3813(3)
H2I H 0.3510(2) 0.8160(2) 0.4982(2)
H1I H 0.3073(2) 0.7914(2) 0.6098(2)
H8B H 0.3015(28) 0.6985(28) 0.6985(28)
C3F C 0.2811(2) 0.5012(2) 0.6126(2)
C2F C 0.2236(2) 0.5217(2) 0.6446(2)
C1F C 0.2374(2) 0.5831(2) 0.6682(2)
H1F H 0.2086(2) 0.6098(2) 0.6927(2)
H2F H 0.1840(2) 0.4982(2) 0.6490(2)
C4F C 0.2948(3) 0.4395(3) 0.5779(2)
C5F C 0.2569(3) 0.3783(3) 0.5941(3)
C6F C 0.2436(3) 0.4119(3) 0.5311(3)
H3F H 0.3412(3) 0.4326(3) 0.5647(2)
H6F H 0.2019(3) 0.4358(3) 0.5267(3)
H7F H 0.2592(3) 0.3907(3) 0.4906(3)
H4F H 0.2805(3) 0.3363(3) 0.5925(3)
H5F H 0.2233(3) 0.3813(3) 0.6286(3)
#END

data_CSD_CIF_NULTUJ
_audit_creation_date 1998-09-21
_audit_creation_method CSD-ConQuest-V1
_database_code_CSD NULTUJ
_chemical_formula_sum 'C48 H96 Br12 K4 Mn1 O24 Tl2'
_chemical_formula_moiety
;
C48 H96 Br4 K4 Mn1 O24 2+,2(Br4 Tl1 1-)
;
_journal_coden_Cambridge 9
_journal_volume 36
_journal_year 1997
_journal_page_first 5539
_journal_name_full 'Inorg.Chem. '
loop_
_publ_author_name
"N.S.Fender"
"F.R.Fronczek"
"V.John"
"I.A.Kahwa"
"G.L.McPherson"
_chemical_name_systematic
;
tetrakis((\m~4~-Bromo)-(18-crown-6)-potassium)-manganese 
bis(tetrabromo-thallium)
;
_cell_volume   9242.490
_exptl_crystal_colour 'pale yellow'
_exptl_crystal_density_diffrn 1.89
_exptl_special_details
;
isomorphous with the zinc analogue, rubidium analogues, chloride salt 
analogues and the copper- thallium analogue at 115 K
;
_diffrn_ambient_temperature ?
_diffrn_special_details
;
The study was carried out at room temperature,in the range 283-303K

;
#These two values have been output from a single CSD field.
_refine_ls_R_factor_gt 0.037
_refine_ls_wR_factor_gt 0.037
_symmetry_cell_setting cubic
_symmetry_space_group_name_H-M 'F 2 3'
_symmetry_Int_Tables_number 196
loop_
_symmetry_equiv_pos_site_id
_symmetry_equiv_pos_as_xyz
1 x,y,z
2 -x,-y,z
3 x,-y,-z
4 z,x,y
5 -x,y,-z
6 -z,-x,y
7 z,-x,-y
8 -z,x,-y
9 y,z,x
10 y,-z,-x
11 -y,z,-x
12 -y,-z,x
13 x,1/2+y,1/2+z
14 -x,1/2-y,1/2+z
15 x,1/2-y,1/2-z
16 z,1/2+x,1/2+y
17 -x,1/2+y,1/2-z
18 -z,1/2-x,1/2+y
19 z,1/2-x,1/2-y
20 -z,1/2+x,1/2-y
21 y,1/2+z,1/2+x
22 y,1/2-z,1/2-x
23 -y,1/2+z,1/2-x
24 -y,1/2-z,1/2+x
25 1/2+x,y,1/2+z
26 1/2-x,-y,1/2+z
27 1/2+x,-y,1/2-z
28 1/2+z,x,1/2+y
29 1/2-x,y,1/2-z
30 1/2-z,-x,1/2+y
31 1/2+z,-x,1/2-y
32 1/2-z,x,1/2-y
33 1/2+y,z,1/2+x
34 1/2+y,-z,1/2-x
35 1/2-y,z,1/2-x
36 1/2-y,-z,1/2+x
37 1/2+x,1/2+y,z
38 1/2-x,1/2-y,z
39 1/2+x,1/2-y,-z
40 1/2+z,1/2+x,y
41 1/2-x,1/2+y,-z
42 1/2-z,1/2-x,y
43 1/2+z,1/2-x,-y
44 1/2-z,1/2+x,-y
45 1/2+y,1/2+z,x
46 1/2+y,1/2-z,-x
47 1/2-y,1/2+z,-x
48 1/2-y,1/2-z,x
_cell_length_a 20.986(7)
_cell_length_b 20.986(7)
_cell_length_c 20.986(7)
_cell_angle_alpha 90
_cell_angle_beta 90
_cell_angle_gamma 90
_cell_formula_units_Z 4
loop_
_atom_type_symbol
_atom_type_radius_bond
C 0.68
H 0.23
Br 1.30
K 2.14
Mn 1.35
O 0.68
Tl 1.55
loop_
_atom_site_label
_atom_site_type_symbol
_atom_site_fract_x
_atom_site_fract_y
_atom_site_fract_z
K1 K 0.3571(1) 0.6429(1) 0.3571(1)
Tl1 Tl 0.00000 0.00000 0.00000
Tl2 Tl 0.25000 0.25000 0.25000
Mn1 Mn 0.25000 0.75000 0.25000
Br1 Br 0.18414(8) 0.68414 0.31586
Br2 Br 0.07014(6) 0.07014 0.07014
Br3 Br 0.17971(6) 0.17971 0.17971
O1 O 0.4734(3) 0.6533(3) 0.2900(3)
O2 O 0.4071(3) 0.5430(3) 0.2742(3)
C1 C 0.4986(6) 0.6018(5) 0.2548(7)
C2 C 0.4457(6) 0.5725(6) 0.2255(6)
C3 C 0.3530(6) 0.5046(6) 0.2565(5)
C4 C 0.5237(4) 0.6879(5) 0.3158(5)
H1 H 0.53200 0.61030 0.22980
H2 H 0.51860 0.56910 0.28970
H3 H 0.46300 0.53310 0.19980
H4 H 0.42450 0.59620 0.20160
H5 H 0.37090 0.46940 0.23370
H6 H 0.32800 0.52960 0.23380
H7 H 0.54200 0.65500 0.34960
H8 H 0.55170 0.69660 0.28920
K1KA K 0.1429(1) 0.8571(1) 0.3571(1)
Br1KA Br 0.31586(8) 0.81586 0.31586
Br1BA Br 0.31586(8) 0.68414 0.18414
K1BA K 0.1429(1) 0.6429(1) 0.1429(1)
Br1N Br 0.18414(8) 0.81586 0.18414
K1N K 0.3571(1) 0.8571(1) 0.1429(1)
O1BA O 0.0266(3) 0.6533(3) 0.2100(3)
C1BA C 0.0014(6) 0.6018(5) 0.2452(7)
C2BA C 0.0543(6) 0.5725(6) 0.2745(6)
O2BA O 0.0929(3) 0.5430(3) 0.2258(3)
O1CA O 0.2100(3) 0.5266(3) 0.1533(3)
C1CA C 0.2452(6) 0.5014(5) 0.1018(7)
C2CA C 0.2745(6) 0.5543(6) 0.0725(6)
O2CA O 0.2258(3) 0.5929(3) 0.0430(3)
O1GA O 0.1533(3) 0.7100(3) 0.0266(3)
C1GA C 0.1018(6) 0.7452(5) 0.0014(7)
C2GA C 0.0725(6) 0.7745(6) 0.0543(6)
O2GA O 0.0430(3) 0.7258(3) 0.0929(3)
C3GA C 0.0046(6) 0.7435(6) 0.1470(5)
C4BA C -0.0237(4) 0.6879(5) 0.1842(5)
H7BA H -0.04200 0.65500 0.15040
H8BA H -0.05170 0.69660 0.21080
H5GA H -0.03060 0.76630 0.12910
H6GA H 0.02960 0.76620 0.17200
H3GA H 0.03310 0.80020 0.03700
H4GA H 0.09620 0.79840 0.07550
H1GA H 0.11030 0.77020 -0.03200
H2GA H 0.06910 0.71030 -0.01860
C4GA C 0.1879(4) 0.6842(5) -0.0237(5)
C3CA C 0.2435(6) 0.6470(6) 0.0046(5)
H5CA H 0.26630 0.62910 -0.03060
H6CA H 0.26620 0.67200 0.02960
H7GA H 0.15500 0.65040 -0.04200
H8GA H 0.19660 0.71080 -0.05170
H3CA H 0.30020 0.53700 0.03310
H4CA H 0.29840 0.57550 0.09620
H1CA H 0.27020 0.46800 0.11030
H2CA H 0.21030 0.48140 0.06910
C4CA C 0.1842(4) 0.4763(5) 0.1879(5)
C3BA C 0.1470(6) 0.5046(6) 0.2435(5)
H5BA H 0.12910 0.46940 0.26630
H6BA H 0.17200 0.52960 0.26620
H7CA H 0.15040 0.45800 0.15500
H8CA H 0.21080 0.44830 0.19660
H3BA H 0.03700 0.53310 0.30020
H4BA H 0.07550 0.59620 0.29840
H1BA H -0.03200 0.61030 0.27020
H2BA H -0.01860 0.56910 0.21030
O1KA O 0.0266(3) 0.8467(3) 0.2900(3)
C1KA C 0.0014(6) 0.8982(5) 0.2548(7)
C2KA C 0.0543(6) 0.9275(6) 0.2255(6)
O2KA O 0.0929(3) 0.9570(3) 0.2742(3)
O1QA O 0.2100(3) 0.9734(3) 0.3467(3)
C1QA C 0.2452(6) 0.9986(5) 0.3982(7)
C2QA C 0.2745(6) 0.9457(6) 0.4275(6)
O2QA O 0.2258(3) 0.9071(3) 0.4570(3)
O1RA O 0.1533(3) 0.7900(3) 0.4734(3)
C1RA C 0.1018(6) 0.7548(5) 0.4986(7)
C2RA C 0.0725(6) 0.7255(6) 0.4457(6)
O2RA O 0.0430(3) 0.7742(3) 0.4071(3)
C3RA C 0.0046(6) 0.7565(6) 0.3530(5)
C4KA C -0.0237(4) 0.8121(5) 0.3158(5)
H7KA H -0.04200 0.84500 0.34960
H8KA H -0.05170 0.80340 0.28920
H5RA H -0.03060 0.73370 0.37090
H6RA H 0.02960 0.73380 0.32800
H3RA H 0.03310 0.69980 0.46300
H4RA H 0.09620 0.70160 0.42450
H1RA H 0.11030 0.72980 0.53200
H2RA H 0.06910 0.78970 0.51860
C4RA C 0.1879(4) 0.8158(5) 0.5237(5)
C3QA C 0.2435(6) 0.8530(6) 0.4954(5)
H5QA H 0.26630 0.87090 0.53060
H6QA H 0.26620 0.82800 0.47040
H7RA H 0.15500 0.84960 0.54200
H8RA H 0.19660 0.78920 0.55170
H3QA H 0.30020 0.96300 0.46690
H4QA H 0.29840 0.92450 0.40380
H1QA H 0.27020 1.03200 0.38970
H2QA H 0.21030 1.01860 0.43090
C4QA C 0.1842(4) 1.0237(5) 0.3121(5)
C3KA C 0.1470(6) 0.9954(6) 0.2565(5)
H5KA H 0.12910 1.03060 0.23370
H6KA H 0.17200 0.97040 0.23380
H7QA H 0.15040 1.04200 0.34500
H8QA H 0.21080 1.05170 0.30340
H3KA H 0.03700 0.96690 0.19980
H4KA H 0.07550 0.90380 0.20160
H1KA H -0.03200 0.88970 0.22980
H2KA H -0.01860 0.93090 0.28970
O1N O 0.4734(3) 0.8467(3) 0.2100(3)
C1N C 0.4986(6) 0.8982(5) 0.2452(7)
C2N C 0.4457(6) 0.9275(6) 0.2745(6)
O2N O 0.4071(3) 0.9570(3) 0.2258(3)
O1O O 0.2900(3) 0.9734(3) 0.1533(3)
C1O C 0.2548(6) 0.9986(5) 0.1018(7)
C2O C 0.2255(6) 0.9457(6) 0.0725(6)
O2O O 0.2742(3) 0.9071(3) 0.0430(3)
O1V O 0.3467(3) 0.7900(3) 0.0266(3)
C1V C 0.3982(6) 0.7548(5) 0.0014(7)
C2V C 0.4275(6) 0.7255(6) 0.0543(6)
O2V O 0.4570(3) 0.7742(3) 0.0929(3)
C3V C 0.4954(6) 0.7565(6) 0.1470(5)
C4N C 0.5237(4) 0.8121(5) 0.1842(5)
H7N H 0.54200 0.84500 0.15040
H8N H 0.55170 0.80340 0.21080
H5V H 0.53060 0.73370 0.12910
H6V H 0.47040 0.73380 0.17200
H3V H 0.46690 0.69980 0.03700
H4V H 0.40380 0.70160 0.07550
H1V H 0.38970 0.72980 -0.03200
H2V H 0.43090 0.78970 -0.01860
C4V C 0.3121(4) 0.8158(5) -0.0237(5)
C3O C 0.2565(6) 0.8530(6) 0.0046(5)
H5O H 0.23370 0.87090 -0.03060
H6O H 0.23380 0.82800 0.02960
H7V H 0.34500 0.84960 -0.04200
H8V H 0.30340 0.78920 -0.05170
H3O H 0.19980 0.96300 0.03310
H4O H 0.20160 0.92450 0.09620
H1O H 0.22980 1.03200 0.11030
H2O H 0.28970 1.01860 0.06910
C4O C 0.3158(4) 1.0237(5) 0.1879(5)
C3N C 0.3530(6) 0.9954(6) 0.2435(5)
H5N H 0.37090 1.03060 0.26630
H6N H 0.32800 0.97040 0.26620
H7O H 0.34960 1.04200 0.15500
H8O H 0.28920 1.05170 0.19660
H3N H 0.46300 0.96690 0.30020
H4N H 0.42450 0.90380 0.29840
H1N H 0.53200 0.88970 0.27020
H2N H 0.51860 0.93090 0.21030
O1F O 0.2900(3) 0.5266(3) 0.3467(3)
C1F C 0.2548(6) 0.5014(5) 0.3982(7)
C2F C 0.2255(6) 0.5543(6) 0.4275(6)
O2F O 0.2742(3) 0.5929(3) 0.4570(3)
O1K O 0.3467(3) 0.7100(3) 0.4734(3)
C1K C 0.3982(6) 0.7452(5) 0.4986(7)
C2K C 0.4275(6) 0.7745(6) 0.4457(6)
O2K O 0.4570(3) 0.7258(3) 0.4071(3)
C3K C 0.4954(6) 0.7435(6) 0.3530(5)
H5K H 0.53060 0.76630 0.37090
H6K H 0.47040 0.76620 0.32800
H3K H 0.46690 0.80020 0.46300
H4K H 0.40380 0.79840 0.42450
H1K H 0.38970 0.77020 0.53200
H2K H 0.43090 0.71030 0.51860
C4K C 0.3121(4) 0.6842(5) 0.5237(5)
C3F C 0.2565(6) 0.6470(6) 0.4954(5)
H5F H 0.23370 0.62910 0.53060
H6F H 0.23380 0.67200 0.47040
H7K H 0.34500 0.65040 0.54200
H8K H 0.30340 0.71080 0.55170
H3F H 0.19980 0.53700 0.46690
H4F H 0.20160 0.57550 0.40380
H1F H 0.22980 0.46800 0.38970
H2F H 0.28970 0.48140 0.43090
C4F C 0.3158(4) 0.4763(5) 0.3121(5)
H7F H 0.34960 0.45800 0.34500
H8F H 0.28920 0.44830 0.30340
Br2A Br -0.07014(6) -0.07014 0.07014
Br2B Br 0.07014(6) -0.07014 -0.07014
Br2D Br -0.07014(6) 0.07014 -0.07014
Br3N Br 0.17971(6) 0.32029 0.32029
Br3BA Br 0.32029(6) 0.17971 0.32029
Br3KA Br 0.32029(6) 0.32029 0.17971
#END

data_CSD_CIF_NULVAR
_audit_creation_date 1998-09-21
_audit_creation_method CSD-ConQuest-V1
_database_code_CSD NULVAR
_chemical_formula_sum 'C48 H96 Br12 K4 O24 Tl2 Zn1'
_chemical_formula_moiety
;
C48 H96 Br4 K4 O24 Zn1 2+,2(Br4 Tl1 1-)
;
_journal_coden_Cambridge 9
_journal_volume 36
_journal_year 1997
_journal_page_first 5539
_journal_name_full 'Inorg.Chem. '
loop_
_publ_author_name
"N.S.Fender"
"F.R.Fronczek"
"V.John"
"I.A.Kahwa"
"G.L.McPherson"
_chemical_name_systematic
;
tetrakis((\m~4~-Bromo)-(18-crown-6)-potassium)-zinc bis(tetrabromo-thallium)
;
_cell_volume   9218.992
_exptl_crystal_colour 'pale yellow'
_exptl_crystal_density_diffrn 1.91
_exptl_special_details
;
Absolute configuration
isomorphous with the manganese analogue, rubidium analogues, chloride salt 
analogues and the copper- thallium analogue at 115 K
;
_diffrn_ambient_temperature ?
_diffrn_special_details
;
The study was carried out at room temperature,in the range 283-303K

;
#These two values have been output from a single CSD field.
_refine_ls_R_factor_gt 0.036
_refine_ls_wR_factor_gt 0.036
_symmetry_cell_setting cubic
_symmetry_space_group_name_H-M 'F 2 3'
_symmetry_Int_Tables_number 196
loop_
_symmetry_equiv_pos_site_id
_symmetry_equiv_pos_as_xyz
1 x,y,z
2 -x,-y,z
3 x,-y,-z
4 z,x,y
5 -x,y,-z
6 -z,-x,y
7 z,-x,-y
8 -z,x,-y
9 y,z,x
10 y,-z,-x
11 -y,z,-x
12 -y,-z,x
13 x,1/2+y,1/2+z
14 -x,1/2-y,1/2+z
15 x,1/2-y,1/2-z
16 z,1/2+x,1/2+y
17 -x,1/2+y,1/2-z
18 -z,1/2-x,1/2+y
19 z,1/2-x,1/2-y
20 -z,1/2+x,1/2-y
21 y,1/2+z,1/2+x
22 y,1/2-z,1/2-x
23 -y,1/2+z,1/2-x
24 -y,1/2-z,1/2+x
25 1/2+x,y,1/2+z
26 1/2-x,-y,1/2+z
27 1/2+x,-y,1/2-z
28 1/2+z,x,1/2+y
29 1/2-x,y,1/2-z
30 1/2-z,-x,1/2+y
31 1/2+z,-x,1/2-y
32 1/2-z,x,1/2-y
33 1/2+y,z,1/2+x
34 1/2+y,-z,1/2-x
35 1/2-y,z,1/2-x
36 1/2-y,-z,1/2+x
37 1/2+x,1/2+y,z
38 1/2-x,1/2-y,z
39 1/2+x,1/2-y,-z
40 1/2+z,1/2+x,y
41 1/2-x,1/2+y,-z
42 1/2-z,1/2-x,y
43 1/2+z,1/2-x,-y
44 1/2-z,1/2+x,-y
45 1/2+y,1/2+z,x
46 1/2+y,1/2-z,-x
47 1/2-y,1/2+z,-x
48 1/2-y,1/2-z,x
_cell_length_a 20.9682(7)
_cell_length_b 20.9682(7)
_cell_length_c 20.9682(7)
_cell_angle_alpha 90
_cell_angle_beta 90
_cell_angle_gamma 90
_cell_formula_units_Z 4
loop_
_atom_type_symbol
_atom_type_radius_bond
C 0.68
H 0.23
Br 1.30
K 2.14
O 0.68
Tl 1.55
Zn 1.29
loop_
_atom_site_label
_atom_site_type_symbol
_atom_site_fract_x
_atom_site_fract_y
_atom_site_fract_z
K1 K 0.35550 0.64450 0.35550
Tl1 Tl 0.00000 0.00000 0.00000
Tl2 Tl 0.25000 0.25000 0.25000
Zn1 Zn 0.25000 0.75000 0.25000
Br1 Br 0.18539(6) 0.68539 0.31461
Br2 Br 0.07040(6) 0.07040 0.07040
Br3 Br 0.17962(6) 0.17962(6) 0.17962(6)
O1 O 0.4755(3) 0.6538(3) 0.2912(4)
O2 O 0.4060(3) 0.5411(4) 0.2780(3)
C1 C 0.4987(8) 0.5998(5) 0.2559(6)
C2 C 0.4430(6) 0.5661(6) 0.2269(5)
C3 C 0.3544(6) 0.5050(5) 0.2560(5)
C4 C 0.5246(5) 0.6887(7) 0.3224(6)
H1 H 0.53200 0.61030 0.22980
H2 H 0.51860 0.56910 0.28970
H3 H 0.46300 0.53310 0.19980
H4 H 0.42450 0.59620 0.20160
H5 H 0.37090 0.46940 0.23370
H6 H 0.32800 0.52960 0.23380
H7 H 0.54200 0.65500 0.34960
H8 H 0.55170 0.69660 0.28920
K1KA K 0.14450 0.85550 0.35550
Br1KA Br 0.31461(6) 0.81461 0.31461
Br1BA Br 0.31461(6) 0.68539 0.18539
K1BA K 0.14450 0.64450 0.14450
Br1N Br 0.18539(6) 0.81461 0.18539
K1N K 0.35550 0.85550 0.14450
O1BA O 0.0245(3) 0.6538(3) 0.2088(4)
C1BA C 0.0013(8) 0.5998(5) 0.2441(6)
C2BA C 0.0570(6) 0.5661(6) 0.2731(5)
O2BA O 0.0940(3) 0.5411(4) 0.2220(3)
O1CA O 0.2088(3) 0.5245(3) 0.1538(4)
C1CA C 0.2441(8) 0.5013(5) 0.0998(6)
C2CA C 0.2731(6) 0.5570(6) 0.0661(5)
O2CA O 0.2220(3) 0.5940(4) 0.0411(3)
O1GA O 0.1538(3) 0.7088(3) 0.0245(4)
C1GA C 0.0998(8) 0.7441(5) 0.0013(6)
C2GA C 0.0661(6) 0.7731(6) 0.0570(5)
O2GA O 0.0411(3) 0.7220(4) 0.0940(3)
C3GA C 0.0050(6) 0.7440(5) 0.1456(5)
C4BA C -0.0246(5) 0.6887(7) 0.1776(6)
H7BA H -0.04200 0.65500 0.15040
H8BA H -0.05170 0.69660 0.21080
H5GA H -0.03060 0.76630 0.12910
H6GA H 0.02960 0.76620 0.17200
H3GA H 0.03310 0.80020 0.03700
H4GA H 0.09620 0.79840 0.07550
H1GA H 0.11030 0.77020 -0.03200
H2GA H 0.06910 0.71030 -0.01860
C4GA C 0.1887(5) 0.6776(7) -0.0246(6)
C3CA C 0.2440(6) 0.6456(5) 0.0050(5)
H5CA H 0.26630 0.62910 -0.03060
H6CA H 0.26620 0.67200 0.02960
H7GA H 0.15500 0.65040 -0.04200
H8GA H 0.19660 0.71080 -0.05170
H3CA H 0.30020 0.53700 0.03310
H4CA H 0.29840 0.57550 0.09620
H1CA H 0.27020 0.46800 0.11030
H2CA H 0.21030 0.48140 0.06910
C4CA C 0.1776(5) 0.4754(7) 0.1887(6)
C3BA C 0.1456(6) 0.5050(5) 0.2440(5)
H5BA H 0.12910 0.46940 0.26630
H6BA H 0.17200 0.52960 0.26620
H7CA H 0.15040 0.45800 0.15500
H8CA H 0.21080 0.44830 0.19660
H3BA H 0.03700 0.53310 0.30020
H4BA H 0.07550 0.59620 0.29840
H1BA H -0.03200 0.61030 0.27020
H2BA H -0.01860 0.56910 0.21030
O1KA O 0.0245(3) 0.8462(3) 0.2912(4)
C1KA C 0.0013(8) 0.9002(5) 0.2559(6)
C2KA C 0.0570(6) 0.9339(6) 0.2269(5)
O2KA O 0.0940(3) 0.9589(4) 0.2780(3)
O1QA O 0.2088(3) 0.9755(3) 0.3462(4)
C1QA C 0.2441(8) 0.9987(5) 0.4002(6)
C2QA C 0.2731(6) 0.9430(6) 0.4339(5)
O2QA O 0.2220(3) 0.9060(4) 0.4589(3)
O1RA O 0.1538(3) 0.7912(3) 0.4755(4)
C1RA C 0.0998(8) 0.7559(5) 0.4987(6)
C2RA C 0.0661(6) 0.7269(6) 0.4430(5)
O2RA O 0.0411(3) 0.7780(4) 0.4060(3)
C3RA C 0.0050(6) 0.7560(5) 0.3544(5)
C4KA C -0.0246(5) 0.8113(7) 0.3224(6)
H7KA H -0.04200 0.84500 0.34960
H8KA H -0.05170 0.80340 0.28920
H5RA H -0.03060 0.73370 0.37090
H6RA H 0.02960 0.73380 0.32800
H3RA H 0.03310 0.69980 0.46300
H4RA H 0.09620 0.70160 0.42450
H1RA H 0.11030 0.72980 0.53200
H2RA H 0.06910 0.78970 0.51860
C4RA C 0.1887(5) 0.8224(7) 0.5246(6)
C3QA C 0.2440(6) 0.8544(5) 0.4950(5)
H5QA H 0.26630 0.87090 0.53060
H6QA H 0.26620 0.82800 0.47040
H7RA H 0.15500 0.84960 0.54200
H8RA H 0.19660 0.78920 0.55170
H3QA H 0.30020 0.96300 0.46690
H4QA H 0.29840 0.92450 0.40380
H1QA H 0.27020 1.03200 0.38970
H2QA H 0.21030 1.01860 0.43090
C4QA C 0.1776(5) 1.0246(7) 0.3113(6)
C3KA C 0.1456(6) 0.9950(5) 0.2560(5)
H5KA H 0.12910 1.03060 0.23370
H6KA H 0.17200 0.97040 0.23380
H7QA H 0.15040 1.04200 0.34500
H8QA H 0.21080 1.05170 0.30340
H3KA H 0.03700 0.96690 0.19980
H4KA H 0.07550 0.90380 0.20160
H1KA H -0.03200 0.88970 0.22980
H2KA H -0.01860 0.93090 0.28970
O1N O 0.4755(3) 0.8462(3) 0.2088(4)
C1N C 0.4987(8) 0.9002(5) 0.2441(6)
C2N C 0.4430(6) 0.9339(6) 0.2731(5)
O2N O 0.4060(3) 0.9589(4) 0.2220(3)
O1O O 0.2912(3) 0.9755(3) 0.1538(4)
C1O C 0.2559(8) 0.9987(5) 0.0998(6)
C2O C 0.2269(6) 0.9430(6) 0.0661(5)
O2O O 0.2780(3) 0.9060(4) 0.0411(3)
O1V O 0.3462(3) 0.7912(3) 0.0245(4)
C1V C 0.4002(8) 0.7559(5) 0.0013(6)
C2V C 0.4339(6) 0.7269(6) 0.0570(5)
O2V O 0.4589(3) 0.7780(4) 0.0940(3)
C3V C 0.4950(6) 0.7560(5) 0.1456(5)
C4N C 0.5246(5) 0.8113(7) 0.1776(6)
H7N H 0.54200 0.84500 0.15040
H8N H 0.55170 0.80340 0.21080
H5V H 0.53060 0.73370 0.12910
H6V H 0.47040 0.73380 0.17200
H3V H 0.46690 0.69980 0.03700
H4V H 0.40380 0.70160 0.07550
H1V H 0.38970 0.72980 -0.03200
H2V H 0.43090 0.78970 -0.01860
C4V C 0.3113(5) 0.8224(7) -0.0246(6)
C3O C 0.2560(6) 0.8544(5) 0.0050(5)
H5O H 0.23370 0.87090 -0.03060
H6O H 0.23380 0.82800 0.02960
H7V H 0.34500 0.84960 -0.04200
H8V H 0.30340 0.78920 -0.05170
H3O H 0.19980 0.96300 0.03310
H4O H 0.20160 0.92450 0.09620
H1O H 0.22980 1.03200 0.11030
H2O H 0.28970 1.01860 0.06910
C4O C 0.3224(5) 1.0246(7) 0.1887(6)
C3N C 0.3544(6) 0.9950(5) 0.2440(5)
H5N H 0.37090 1.03060 0.26630
H6N H 0.32800 0.97040 0.26620
H7O H 0.34960 1.04200 0.15500
H8O H 0.28920 1.05170 0.19660
H3N H 0.46300 0.96690 0.30020
H4N H 0.42450 0.90380 0.29840
H1N H 0.53200 0.88970 0.27020
H2N H 0.51860 0.93090 0.21030
O1F O 0.2912(3) 0.5245(3) 0.3462(4)
C1F C 0.2559(8) 0.5013(5) 0.4002(6)
C2F C 0.2269(6) 0.5570(6) 0.4339(5)
O2F O 0.2780(3) 0.5940(4) 0.4589(3)
O1K O 0.3462(3) 0.7088(3) 0.4755(4)
C1K C 0.4002(8) 0.7441(5) 0.4987(6)
C2K C 0.4339(6) 0.7731(6) 0.4430(5)
O2K O 0.4589(3) 0.7220(4) 0.4060(3)
C3K C 0.4950(6) 0.7440(5) 0.3544(5)
H5K H 0.53060 0.76630 0.37090
H6K H 0.47040 0.76620 0.32800
H3K H 0.46690 0.80020 0.46300
H4K H 0.40380 0.79840 0.42450
H1K H 0.38970 0.77020 0.53200
H2K H 0.43090 0.71030 0.51860
C4K C 0.3113(5) 0.6776(7) 0.5246(6)
C3F C 0.2560(6) 0.6456(5) 0.4950(5)
H5F H 0.23370 0.62910 0.53060
H6F H 0.23380 0.67200 0.47040
H7K H 0.34500 0.65040 0.54200
H8K H 0.30340 0.71080 0.55170
H3F H 0.19980 0.53700 0.46690
H4F H 0.20160 0.57550 0.40380
H1F H 0.22980 0.46800 0.38970
H2F H 0.28970 0.48140 0.43090
C4F C 0.3224(5) 0.4754(7) 0.3113(6)
H7F H 0.34960 0.45800 0.34500
H8F H 0.28920 0.44830 0.30340
Br2A Br -0.07040(6) -0.07040 0.07040
Br2B Br 0.07040(6) -0.07040 -0.07040
Br2D Br -0.07040(6) 0.07040 -0.07040
Br3N Br 0.17962(6) 0.32038(6) 0.32038(6)
Br3BA Br 0.32038(6) 0.17962(6) 0.32038(6)
Br3KA Br 0.32038(6) 0.32038(6) 0.17962(6)
#END

data_CSD_CIF_QITDIG
_audit_creation_date 2001-07-19
_audit_creation_method CSD-ConQuest-V1
_database_code_CSD QITDIG
_chemical_formula_sum 'C64 H108 Cl4 N13 Ni6 O40 Sm1'
_chemical_formula_moiety
;
C4 H12 N1 1+,C60 H96 N12 Ni6 O24 Sm1 3+,4(Cl1 O4 1-)
;
_journal_coden_Cambridge 9
_journal_volume 39
_journal_year 2000
_journal_page_first 2509
_journal_name_full 'Inorg.Chem. '
loop_
_publ_author_name
"S.Igarashi"
"Y.Hoshino"
"Y.Masuda"
"Y.Yukawa"
_chemical_name_systematic
;
Tetramethylammonium dodecakis(\m~3~-L-prolinato)-hexa-nickel(ii)-samarium 
tetraperchlorate
;
_cell_volume   9633.684
_exptl_crystal_colour 'purple'
_exptl_crystal_density_diffrn 1.616
_exptl_crystal_description 'tetrahedron'
_exptl_crystal_preparation 'acetonitrile'
_diffrn_ambient_temperature ?
_diffrn_special_details
;
The study was carried out at room temperature,in the range 283-303K

;
#These two values have been output from a single CSD field.
_refine_ls_R_factor_gt 0.035
_refine_ls_wR_factor_gt 0.035
_symmetry_cell_setting cubic
_symmetry_space_group_name_H-M 'F 2 3'
_symmetry_Int_Tables_number 196
loop_
_symmetry_equiv_pos_site_id
_symmetry_equiv_pos_as_xyz
1 x,y,z
2 -x,-y,z
3 x,-y,-z
4 z,x,y
5 -x,y,-z
6 -z,-x,y
7 z,-x,-y
8 -z,x,-y
9 y,z,x
10 y,-z,-x
11 -y,z,-x
12 -y,-z,x
13 x,1/2+y,1/2+z
14 -x,1/2-y,1/2+z
15 x,1/2-y,1/2-z
16 z,1/2+x,1/2+y
17 -x,1/2+y,1/2-z
18 -z,1/2-x,1/2+y
19 z,1/2-x,1/2-y
20 -z,1/2+x,1/2-y
21 y,1/2+z,1/2+x
22 y,1/2-z,1/2-x
23 -y,1/2+z,1/2-x
24 -y,1/2-z,1/2+x
25 1/2+x,y,1/2+z
26 1/2-x,-y,1/2+z
27 1/2+x,-y,1/2-z
28 1/2+z,x,1/2+y
29 1/2-x,y,1/2-z
30 1/2-z,-x,1/2+y
31 1/2+z,-x,1/2-y
32 1/2-z,x,1/2-y
33 1/2+y,z,1/2+x
34 1/2+y,-z,1/2-x
35 1/2-y,z,1/2-x
36 1/2-y,-z,1/2+x
37 1/2+x,1/2+y,z
38 1/2-x,1/2-y,z
39 1/2+x,1/2-y,-z
40 1/2+z,1/2+x,y
41 1/2-x,1/2+y,-z
42 1/2-z,1/2-x,y
43 1/2+z,1/2-x,-y
44 1/2-z,1/2+x,-y
45 1/2+y,1/2+z,x
46 1/2+y,1/2-z,-x
47 1/2-y,1/2+z,-x
48 1/2-y,1/2-z,x
_cell_length_a 21.278(3)
_cell_length_b 21.278(3)
_cell_length_c 21.278(3)
_cell_angle_alpha 90
_cell_angle_beta 90
_cell_angle_gamma 90
_cell_formula_units_Z 4
loop_
_atom_type_symbol
_atom_type_radius_bond
C 0.68
H 0.23
Cl 0.98
N 0.68
Ni 1.50
O 0.68
Sm 1.75
loop_
_atom_site_label
_atom_site_type_symbol
_atom_site_fract_x
_atom_site_fract_y
_atom_site_fract_z
Sm1 Sm 0.00000 0.00000 0.00000
Ni1 Ni 0.17387(3) 0.00000 0.00000
Cl1 Cl 0.3739(2) 0.37390 0.37390
O1 O 0.1064(1) 0.0679(1) -0.0004(3)
O2 O 0.1727(1) -0.0007(1) 0.0962(4)
O3 O 0.4087(7) 0.40870 0.40870
O4 O 0.3226(8) 0.404(1) 0.3726(8)
N1 N 0.2359(2) 0.0741(2) 0.0078(3)
N2 N 0.25000 0.25000 0.25000
C1 C 0.1980(2) 0.1326(3) 0.0041(9)
C2 C 0.2236(6) 0.1680(7) -0.050(1)
C3 C 0.2862(6) 0.1447(6) -0.0644(9)
C4 C 0.2852(4) 0.0800(5) -0.0427(5)
C5 C 0.1279(2) 0.1232(2) 0.0022(4)
C6 C 0.210(2) 0.21010 0.21010
H1 H 0.25610 0.07240 0.04660
H2 H 0.20820 0.15820 0.03810
H3 H 0.19800 0.15570 -0.08830
H4 H 0.22080 0.21030 -0.04560
H5 H 0.29750 0.15120 -0.10220
H6 H 0.31170 0.16910 -0.03290
H7 H 0.32520 0.06720 -0.02670
H8 H 0.27510 0.05360 -0.07790
O1B O 0.1064(1) -0.0679(1) 0.0004(3)
O1A O -0.1064(1) -0.0679(1) -0.0004(3)
Ni1A Ni -0.17387(3) 0.00000 0.00000
O1D O -0.1064(1) 0.0679(1) 0.0004(3)
O1C O -0.0004(1) 0.1064(1) 0.0679(3)
Ni1C Ni 0.00000(3) 0.17387 0.00000
O1G O 0.0004(1) 0.1064(1) -0.0679(3)
O1E O 0.0004(1) -0.1064(1) 0.0679(3)
Ni1E Ni 0.00000(3) -0.17387 0.00000
O1F O -0.0004(1) -0.1064(1) -0.0679(3)
O1H O 0.0679(1) -0.0004(1) 0.1064(3)
Ni1H Ni 0.00000(3) 0.00000 0.17387
O1K O -0.0679(1) 0.0004(1) 0.1064(3)
O1I O 0.0679(1) 0.0004(1) -0.1064(3)
Ni1I Ni 0.00000(3) 0.00000 -0.17387
O1J O -0.0679(1) -0.0004(1) -0.1064(3)
C5J C -0.1232(2) 0.0022(2) -0.1279(4)
O2D O -0.1727(1) -0.0007(1) -0.0962(4)
O2A O -0.1727(1) 0.0007(1) 0.0962(4)
C5K C -0.1232(2) -0.0022(2) 0.1279(4)
C1K C -0.1326(2) -0.0041(3) 0.1980(9)
N1K N -0.0741(2) -0.0078(2) 0.2359(3)
O2H O -0.0007(1) 0.0962(1) 0.1727(4)
C5C C 0.0022(2) 0.1279(2) 0.1232(4)
C1C C 0.0041(2) 0.1980(3) 0.1326(9)
N1C N 0.0078(2) 0.2359(2) 0.0741(3)
O2C O 0.0962(1) 0.1727(1) -0.0007(4)
C5H C 0.1232(2) 0.0022(2) 0.1279(4)
C1H C 0.1326(2) 0.0041(3) 0.1980(9)
N1H N 0.0741(2) 0.0078(2) 0.2359(3)
O2K O 0.0007(1) -0.0962(1) 0.1727(4)
C5E C -0.0022(2) -0.1279(2) 0.1232(4)
C1E C -0.0041(2) -0.1980(3) 0.1326(9)
N1E N -0.0078(2) -0.2359(2) 0.0741(3)
O2E O -0.0962(1) -0.1727(1) -0.0007(4)
C5A C -0.1279(2) -0.1232(2) 0.0022(4)
C1A C -0.1980(2) -0.1326(3) 0.0041(9)
N1A N -0.2359(2) -0.0741(2) 0.0078(3)
N1D N -0.2359(2) 0.0741(2) -0.0078(3)
C1D C -0.1980(2) 0.1326(3) -0.0041(9)
C2D C -0.2236(6) 0.1680(7) 0.050(1)
C3D C -0.2862(6) 0.1447(6) 0.0644(9)
C4D C -0.2852(4) 0.0800(5) 0.0427(5)
H1D H -0.25610 0.07240 -0.04660
H7D H -0.32520 0.06720 0.02670
H8D H -0.27510 0.05360 0.07790
H5D H -0.29750 0.15120 0.10220
H6D H -0.31170 0.16910 0.03290
H3D H -0.19800 0.15570 0.08830
H4D H -0.22080 0.21030 0.04560
C5D C -0.1279(2) 0.1232(2) -0.0022(4)
O2G O -0.0962(1) 0.1727(1) 0.0007(4)
N1G N -0.0078(2) 0.2359(2) -0.0741(3)
C1G C -0.0041(2) 0.1980(3) -0.1326(9)
C2G C 0.0500(6) 0.2236(7) -0.168(1)
C3G C 0.0644(6) 0.2862(6) -0.1447(9)
C4G C 0.0427(4) 0.2852(5) -0.0800(5)
H1G H -0.04660 0.25610 -0.07240
H7G H 0.02670 0.32520 -0.06720
H8G H 0.07790 0.27510 -0.05360
H5G H 0.10220 0.29750 -0.15120
H6G H 0.03290 0.31170 -0.16910
H3G H 0.08830 0.19800 -0.15570
H4G H 0.04560 0.22080 -0.21030
C5G C -0.0022(2) 0.1279(2) -0.1232(4)
O2J O 0.0007(1) 0.0962(1) -0.1727(4)
O2I O -0.0007(1) -0.0962(1) -0.1727(4)
C5F C 0.0022(2) -0.1279(2) -0.1232(4)
C1F C 0.0041(2) -0.1980(3) -0.1326(9)
N1F N 0.0078(2) -0.2359(2) -0.0741(3)
O2F O 0.0962(1) -0.1727(1) 0.0007(4)
C5B C 0.1279(2) -0.1232(2) -0.0022(4)
C1B C 0.1980(2) -0.1326(3) -0.0041(9)
N1B N 0.2359(2) -0.0741(2) -0.0078(3)
O2B O 0.1727(1) 0.0007(1) -0.0962(4)
C5I C 0.1232(2) -0.0022(2) -0.1279(4)
C1I C 0.1326(2) -0.0041(3) -0.1980(9)
N1I N 0.0741(2) -0.0078(2) -0.2359(3)
N1J N -0.0741(2) 0.0078(2) -0.2359(3)
C1J C -0.1326(2) 0.0041(3) -0.1980(9)
C2J C -0.1680(6) -0.0500(7) -0.2236(10)
C3J C -0.1447(6) -0.0644(6) -0.2862(9)
C4J C -0.0800(4) -0.0427(5) -0.2852(5)
H1J H -0.07240 0.04660 -0.25610
H7J H -0.06720 -0.02670 -0.32520
H8J H -0.05360 -0.07790 -0.27510
H5J H -0.15120 -0.10220 -0.29750
H6J H -0.16910 -0.03290 -0.31170
H3J H -0.15570 -0.08830 -0.19800
H4J H -0.21030 -0.04560 -0.22080
H2J H -0.15820 0.03810 -0.20820
C4I C 0.0800(4) 0.0427(5) -0.2852(5)
C3I C 0.1447(6) 0.0644(6) -0.2862(9)
C2I C 0.1680(6) 0.0500(7) -0.2236(10)
H2I H 0.15820 -0.03810 -0.20820
H3I H 0.15570 0.08830 -0.19800
H4I H 0.21030 0.04560 -0.22080
H5I H 0.15120 0.10220 -0.29750
H6I H 0.16910 0.03290 -0.31170
H7I H 0.06720 0.02670 -0.32520
H8I H 0.05360 0.07790 -0.27510
H1I H 0.07240 -0.04660 -0.25610
C4B C 0.2852(4) -0.0800(5) 0.0427(5)
C3B C 0.2862(6) -0.1447(6) 0.0644(9)
C2B C 0.2236(6) -0.1680(7) 0.050(1)
H2B H 0.20820 -0.15820 -0.03810
H3B H 0.19800 -0.15570 0.08830
H4B H 0.22080 -0.21030 0.04560
H5B H 0.29750 -0.15120 0.10220
H6B H 0.31170 -0.16910 0.03290
H7B H 0.32520 -0.06720 0.02670
H8B H 0.27510 -0.05360 0.07790
H1B H 0.25610 -0.07240 -0.04660
C4F C -0.0427(4) -0.2852(5) -0.0800(5)
C3F C -0.0644(6) -0.2862(6) -0.1447(9)
C2F C -0.0500(6) -0.2236(7) -0.168(1)
H2F H 0.03810 -0.20820 -0.15820
H3F H -0.08830 -0.19800 -0.15570
H4F H -0.04560 -0.22080 -0.21030
H5F H -0.10220 -0.29750 -0.15120
H6F H -0.03290 -0.31170 -0.16910
H7F H -0.02670 -0.32520 -0.06720
H8F H -0.07790 -0.27510 -0.05360
H1F H 0.04660 -0.25610 -0.07240
H2G H -0.03810 0.20820 -0.15820
H2D H -0.20820 0.15820 -0.03810
C4A C -0.2852(4) -0.0800(5) -0.0427(5)
C3A C -0.2862(6) -0.1447(6) -0.0644(9)
C2A C -0.2236(6) -0.1680(7) -0.050(1)
H2A H -0.20820 -0.15820 0.03810
H3A H -0.19800 -0.15570 -0.08830
H4A H -0.22080 -0.21030 -0.04560
H5A H -0.29750 -0.15120 -0.10220
H6A H -0.31170 -0.16910 -0.03290
H7A H -0.32520 -0.06720 -0.02670
H8A H -0.27510 -0.05360 -0.07790
H1A H -0.25610 -0.07240 0.04660
C4E C 0.0427(4) -0.2852(5) 0.0800(5)
C3E C 0.0644(6) -0.2862(6) 0.1447(9)
C2E C 0.0500(6) -0.2236(7) 0.168(1)
H2E H -0.03810 -0.20820 0.15820
H3E H 0.08830 -0.19800 0.15570
H4E H 0.04560 -0.22080 0.21030
H5E H 0.10220 -0.29750 0.15120
H6E H 0.03290 -0.31170 0.16910
H7E H 0.02670 -0.32520 0.06720
H8E H 0.07790 -0.27510 0.05360
H1E H -0.04660 -0.25610 0.07240
C4H C 0.0800(4) -0.0427(5) 0.2852(5)
C3H C 0.1447(6) -0.0644(6) 0.2862(9)
C2H C 0.1680(6) -0.0500(7) 0.2236(10)
H2H H 0.15820 0.03810 0.20820
H3H H 0.15570 -0.08830 0.19800
H4H H 0.21030 -0.04560 0.22080
H5H H 0.15120 -0.10220 0.29750
H6H H 0.16910 -0.03290 0.31170
H7H H 0.06720 -0.02670 0.32520
H8H H 0.05360 -0.07790 0.27510
H1H H 0.07240 0.04660 0.25610
C4C C -0.0427(4) 0.2852(5) 0.0800(5)
C3C C -0.0644(6) 0.2862(6) 0.1447(9)
C2C C -0.0500(6) 0.2236(7) 0.168(1)
H2C H 0.03810 0.20820 0.15820
H3C H -0.08830 0.19800 0.15570
H4C H -0.04560 0.22080 0.21030
H5C H -0.10220 0.29750 0.15120
H6C H -0.03290 0.31170 0.16910
H7C H -0.02670 0.32520 0.06720
H8C H -0.07790 0.27510 0.05360
H1C H 0.04660 0.25610 0.07240
C4K C -0.0800(4) 0.0427(5) 0.2852(5)
C3K C -0.1447(6) 0.0644(6) 0.2862(9)
C2K C -0.1680(6) 0.0500(7) 0.2236(10)
H2K H -0.15820 -0.03810 0.20820
H3K H -0.15570 0.08830 0.19800
H4K H -0.21030 0.04560 0.22080
H5K H -0.15120 0.10220 0.29750
H6K H -0.16910 0.03290 0.31170
H7K H -0.06720 0.02670 0.32520
H8K H -0.05360 0.07790 0.27510
H1K H -0.07240 -0.04660 0.25610
O4C O 0.3726(8) 0.3226(10) 0.4040(8)
O4H O 0.4040(8) 0.3726(10) 0.3226(8)
C6N C 0.210(2) 0.28990 0.28990
C6BA C 0.290(2) 0.21010 0.28990
C6KA C 0.290(2) 0.28990 0.21010
#END

data_CSD_CIF_QITDUS
_audit_creation_date 2001-07-19
_audit_creation_method CSD-ConQuest-V1
_database_code_CSD QITDUS
_chemical_formula_sum 'C64 H108 F24 N13 Ni6 O24 P4 Sm1'
_chemical_formula_moiety
;
C4 H12 N1 1+,C60 H96 N12 Ni6 O24 Sm1 3+,4(F6 P1 1-)
;
_journal_coden_Cambridge 9
_journal_volume 39
_journal_year 2000
_journal_page_first 2509
_journal_name_full 'Inorg.Chem. '
loop_
_publ_author_name
"S.Igarashi"
"Y.Hoshino"
"Y.Masuda"
"Y.Yukawa"
_chemical_name_systematic
;
Tetramethylammonium dodecakis(\m~3~-L-prolinato)-hexa-nickel(ii)-samarium 
tetrakis(hexafluorophosphate)
;
_cell_volume  10091.699
_exptl_crystal_colour 'purple'
_exptl_crystal_density_diffrn 1.663
_exptl_crystal_description 'tetrahedron'
_exptl_crystal_preparation 'acetonitrile'
_diffrn_ambient_temperature ?
_diffrn_special_details
;
The study was carried out at room temperature,in the range 283-303K

;
#These two values have been output from a single CSD field.
_refine_ls_R_factor_gt 0.042
_refine_ls_wR_factor_gt 0.042
_symmetry_cell_setting cubic
_symmetry_space_group_name_H-M 'F 2 3'
_symmetry_Int_Tables_number 196
loop_
_symmetry_equiv_pos_site_id
_symmetry_equiv_pos_as_xyz
1 x,y,z
2 -x,-y,z
3 x,-y,-z
4 z,x,y
5 -x,y,-z
6 -z,-x,y
7 z,-x,-y
8 -z,x,-y
9 y,z,x
10 y,-z,-x
11 -y,z,-x
12 -y,-z,x
13 x,1/2+y,1/2+z
14 -x,1/2-y,1/2+z
15 x,1/2-y,1/2-z
16 z,1/2+x,1/2+y
17 -x,1/2+y,1/2-z
18 -z,1/2-x,1/2+y
19 z,1/2-x,1/2-y
20 -z,1/2+x,1/2-y
21 y,1/2+z,1/2+x
22 y,1/2-z,1/2-x
23 -y,1/2+z,1/2-x
24 -y,1/2-z,1/2+x
25 1/2+x,y,1/2+z
26 1/2-x,-y,1/2+z
27 1/2+x,-y,1/2-z
28 1/2+z,x,1/2+y
29 1/2-x,y,1/2-z
30 1/2-z,-x,1/2+y
31 1/2+z,-x,1/2-y
32 1/2-z,x,1/2-y
33 1/2+y,z,1/2+x
34 1/2+y,-z,1/2-x
35 1/2-y,z,1/2-x
36 1/2-y,-z,1/2+x
37 1/2+x,1/2+y,z
38 1/2-x,1/2-y,z
39 1/2+x,1/2-y,-z
40 1/2+z,1/2+x,y
41 1/2-x,1/2+y,-z
42 1/2-z,1/2-x,y
43 1/2+z,1/2-x,-y
44 1/2-z,1/2+x,-y
45 1/2+y,1/2+z,x
46 1/2+y,1/2-z,-x
47 1/2-y,1/2+z,-x
48 1/2-y,1/2-z,x
_cell_length_a 21.610(1)
_cell_length_b 21.610(1)
_cell_length_c 21.610(1)
_cell_angle_alpha 90
_cell_angle_beta 90
_cell_angle_gamma 90
_cell_formula_units_Z 4
loop_
_atom_type_symbol
_atom_type_radius_bond
C 0.68
H 0.23
F 0.64
N 0.68
Ni 1.50
O 0.68
P 1.05
Sm 1.75
loop_
_atom_site_label
_atom_site_type_symbol
_atom_site_fract_x
_atom_site_fract_y
_atom_site_fract_z
Sm1 Sm 0.00000 0.00000 0.00000
Ni1 Ni 0.17119(3) 0.00000 0.00000
P1 P 0.3755(2) 0.37550 0.37350
F1 F 0.4077(6) 0.3532(5) 0.4353(7)
F2 F 0.3983(5) 0.3136(5) 0.3459(6)
O1 O 0.1043(1) 0.0671(1) 0.0006(3)
O2 O 0.1702(2) 0.0034(2) 0.0948(4)
N1 N 0.2323(2) 0.0736(2) 0.0026(5)
N2 N 0.25000 0.25000 0.25000
C1 C 0.1960(2) 0.1314(3) 0.0052(6)
C2 C 0.2173(6) 0.1629(8) -0.0578(9)
C3 C 0.2827(5) 0.1430(6) -0.0629(7)
C4 C 0.2809(4) 0.0785(4) -0.0468(5)
C5 C 0.1258(2) 0.1211(2) 0.0024(5)
C6 C 0.2108(9) 0.21080 0.21080
H1 H 0.25370 0.07240 0.04480
H2 H 0.20670 0.15690 0.03460
H3 H 0.19390 0.15310 -0.09200
H4 H 0.21210 0.20940 -0.05140
H5 H 0.29870 0.15570 -0.10100
H6 H 0.30690 0.16890 -0.03000
H7 H 0.31940 0.06270 -0.03500
H8 H 0.26610 0.05550 -0.08260
O1B O 0.1043(1) -0.0671(1) -0.0006(3)
O1A O -0.1043(1) -0.0671(1) 0.0006(3)
Ni1A Ni -0.17119(3) 0.00000 0.00000
O1D O -0.1043(1) 0.0671(1) -0.0006(3)
O1C O 0.0006(1) 0.1043(1) 0.0671(3)
Ni1C Ni 0.00000(3) 0.17119 0.00000
O1G O -0.0006(1) 0.1043(1) -0.0671(3)
O1E O -0.0006(1) -0.1043(1) 0.0671(3)
Ni1E Ni 0.00000(3) -0.17119 0.00000
O1F O 0.0006(1) -0.1043(1) -0.0671(3)
O1H O 0.0671(1) 0.0006(1) 0.1043(3)
Ni1H Ni 0.00000(3) 0.00000 0.17119
O1K O -0.0671(1) -0.0006(1) 0.1043(3)
O1I O 0.0671(1) -0.0006(1) -0.1043(3)
Ni1I Ni 0.00000(3) 0.00000 -0.17119
O1J O -0.0671(1) 0.0006(1) -0.1043(3)
C5J C -0.1211(2) 0.0024(2) -0.1258(5)
O2D O -0.1702(2) 0.0034(2) -0.0948(4)
O2A O -0.1702(2) -0.0034(2) 0.0948(4)
C5K C -0.1211(2) -0.0024(2) 0.1258(5)
C1K C -0.1314(2) -0.0052(3) 0.1960(6)
N1K N -0.0736(2) -0.0026(2) 0.2323(5)
O2H O 0.0034(2) 0.0948(2) 0.1702(4)
C5C C 0.0024(2) 0.1258(2) 0.1211(5)
C1C C 0.0052(2) 0.1960(3) 0.1314(6)
N1C N 0.0026(2) 0.2323(2) 0.0736(5)
O2C O 0.0948(2) 0.1702(2) 0.0034(4)
C5H C 0.1211(2) 0.0024(2) 0.1258(5)
C1H C 0.1314(2) 0.0052(3) 0.1960(6)
N1H N 0.0736(2) 0.0026(2) 0.2323(5)
O2K O -0.0034(2) -0.0948(2) 0.1702(4)
C5E C -0.0024(2) -0.1258(2) 0.1211(5)
C1E C -0.0052(2) -0.1960(3) 0.1314(6)
N1E N -0.0026(2) -0.2323(2) 0.0736(5)
O2E O -0.0948(2) -0.1702(2) 0.0034(4)
C5A C -0.1258(2) -0.1211(2) 0.0024(5)
C1A C -0.1960(2) -0.1314(3) 0.0052(6)
N1A N -0.2323(2) -0.0736(2) 0.0026(5)
N1D N -0.2323(2) 0.0736(2) -0.0026(5)
C1D C -0.1960(2) 0.1314(3) -0.0052(6)
C2D C -0.2173(6) 0.1629(8) 0.0578(9)
C3D C -0.2827(5) 0.1430(6) 0.0629(7)
C4D C -0.2809(4) 0.0785(4) 0.0468(5)
H1D H -0.25370 0.07240 -0.04480
H7D H -0.31940 0.06270 0.03500
H8D H -0.26610 0.05550 0.08260
H5D H -0.29870 0.15570 0.10100
H6D H -0.30690 0.16890 0.03000
H3D H -0.19390 0.15310 0.09200
H4D H -0.21210 0.20940 0.05140
C5D C -0.1258(2) 0.1211(2) -0.0024(5)
O2G O -0.0948(2) 0.1702(2) -0.0034(4)
N1G N -0.0026(2) 0.2323(2) -0.0736(5)
C1G C -0.0052(2) 0.1960(3) -0.1314(6)
C2G C 0.0578(6) 0.2173(8) -0.1629(9)
C3G C 0.0629(5) 0.2827(6) -0.1430(7)
C4G C 0.0468(4) 0.2809(4) -0.0785(5)
H1G H -0.04480 0.25370 -0.07240
H7G H 0.03500 0.31940 -0.06270
H8G H 0.08260 0.26610 -0.05550
H5G H 0.10100 0.29870 -0.15570
H6G H 0.03000 0.30690 -0.16890
H3G H 0.09200 0.19390 -0.15310
H4G H 0.05140 0.21210 -0.20940
C5G C -0.0024(2) 0.1258(2) -0.1211(5)
O2J O -0.0034(2) 0.0948(2) -0.1702(4)
O2I O 0.0034(2) -0.0948(2) -0.1702(4)
C5F C 0.0024(2) -0.1258(2) -0.1211(5)
C1F C 0.0052(2) -0.1960(3) -0.1314(6)
N1F N 0.0026(2) -0.2323(2) -0.0736(5)
O2F O 0.0948(2) -0.1702(2) -0.0034(4)
C5B C 0.1258(2) -0.1211(2) -0.0024(5)
C1B C 0.1960(2) -0.1314(3) -0.0052(6)
N1B N 0.2323(2) -0.0736(2) -0.0026(5)
O2B O 0.1702(2) -0.0034(2) -0.0948(4)
C5I C 0.1211(2) -0.0024(2) -0.1258(5)
C1I C 0.1314(2) -0.0052(3) -0.1960(6)
N1I N 0.0736(2) -0.0026(2) -0.2323(5)
N1J N -0.0736(2) 0.0026(2) -0.2323(5)
C1J C -0.1314(2) 0.0052(3) -0.1960(6)
C2J C -0.1629(6) -0.0578(8) -0.2173(9)
C3J C -0.1430(5) -0.0629(6) -0.2827(7)
C4J C -0.0785(4) -0.0468(4) -0.2809(5)
H1J H -0.07240 0.04480 -0.25370
H7J H -0.06270 -0.03500 -0.31940
H8J H -0.05550 -0.08260 -0.26610
H5J H -0.15570 -0.10100 -0.29870
H6J H -0.16890 -0.03000 -0.30690
H3J H -0.15310 -0.09200 -0.19390
H4J H -0.20940 -0.05140 -0.21210
H2J H -0.15690 0.03460 -0.20670
C4I C 0.0785(4) 0.0468(4) -0.2809(5)
C3I C 0.1430(5) 0.0629(6) -0.2827(7)
C2I C 0.1629(6) 0.0578(8) -0.2173(9)
H2I H 0.15690 -0.03460 -0.20670
H3I H 0.15310 0.09200 -0.19390
H4I H 0.20940 0.05140 -0.21210
H5I H 0.15570 0.10100 -0.29870
H6I H 0.16890 0.03000 -0.30690
H7I H 0.06270 0.03500 -0.31940
H8I H 0.05550 0.08260 -0.26610
H1I H 0.07240 -0.04480 -0.25370
C4B C 0.2809(4) -0.0785(4) 0.0468(5)
C3B C 0.2827(5) -0.1430(6) 0.0629(7)
C2B C 0.2173(6) -0.1629(8) 0.0578(9)
H2B H 0.20670 -0.15690 -0.03460
H3B H 0.19390 -0.15310 0.09200
H4B H 0.21210 -0.20940 0.05140
H5B H 0.29870 -0.15570 0.10100
H6B H 0.30690 -0.16890 0.03000
H7B H 0.31940 -0.06270 0.03500
H8B H 0.26610 -0.05550 0.08260
H1B H 0.25370 -0.07240 -0.04480
C4F C -0.0468(4) -0.2809(4) -0.0785(5)
C3F C -0.0629(5) -0.2827(6) -0.1430(7)
C2F C -0.0578(6) -0.2173(8) -0.1629(9)
H2F H 0.03460 -0.20670 -0.15690
H3F H -0.09200 -0.19390 -0.15310
H4F H -0.05140 -0.21210 -0.20940
H5F H -0.10100 -0.29870 -0.15570
H6F H -0.03000 -0.30690 -0.16890
H7F H -0.03500 -0.31940 -0.06270
H8F H -0.08260 -0.26610 -0.05550
H1F H 0.04480 -0.25370 -0.07240
H2G H -0.03460 0.20670 -0.15690
H2D H -0.20670 0.15690 -0.03460
C4A C -0.2809(4) -0.0785(4) -0.0468(5)
C3A C -0.2827(5) -0.1430(6) -0.0629(7)
C2A C -0.2173(6) -0.1629(8) -0.0578(9)
H2A H -0.20670 -0.15690 0.03460
H3A H -0.19390 -0.15310 -0.09200
H4A H -0.21210 -0.20940 -0.05140
H5A H -0.29870 -0.15570 -0.10100
H6A H -0.30690 -0.16890 -0.03000
H7A H -0.31940 -0.06270 -0.03500
H8A H -0.26610 -0.05550 -0.08260
H1A H -0.25370 -0.07240 0.04480
C4E C 0.0468(4) -0.2809(4) 0.0785(5)
C3E C 0.0629(5) -0.2827(6) 0.1430(7)
C2E C 0.0578(6) -0.2173(8) 0.1629(9)
H2E H -0.03460 -0.20670 0.15690
H3E H 0.09200 -0.19390 0.15310
H4E H 0.05140 -0.21210 0.20940
H5E H 0.10100 -0.29870 0.15570
H6E H 0.03000 -0.30690 0.16890
H7E H 0.03500 -0.31940 0.06270
H8E H 0.08260 -0.26610 0.05550
H1E H -0.04480 -0.25370 0.07240
C4H C 0.0785(4) -0.0468(4) 0.2809(5)
C3H C 0.1430(5) -0.0629(6) 0.2827(7)
C2H C 0.1629(6) -0.0578(8) 0.2173(9)
H2H H 0.15690 0.03460 0.20670
H3H H 0.15310 -0.09200 0.19390
H4H H 0.20940 -0.05140 0.21210
H5H H 0.15570 -0.10100 0.29870
H6H H 0.16890 -0.03000 0.30690
H7H H 0.06270 -0.03500 0.31940
H8H H 0.05550 -0.08260 0.26610
H1H H 0.07240 0.04480 0.25370
C4C C -0.0468(4) 0.2809(4) 0.0785(5)
C3C C -0.0629(5) 0.2827(6) 0.1430(7)
C2C C -0.0578(6) 0.2173(8) 0.1629(9)
H2C H 0.03460 0.20670 0.15690
H3C H -0.09200 0.19390 0.15310
H4C H -0.05140 0.21210 0.20940
H5C H -0.10100 0.29870 0.15570
H6C H -0.03000 0.30690 0.16890
H7C H -0.03500 0.31940 0.06270
H8C H -0.08260 0.26610 0.05550
H1C H 0.04480 0.25370 0.07240
C4K C -0.0785(4) 0.0468(4) 0.2809(5)
C3K C -0.1430(5) 0.0629(6) 0.2827(7)
C2K C -0.1629(6) 0.0578(8) 0.2173(9)
H2K H -0.15690 -0.03460 0.20670
H3K H -0.15310 0.09200 0.19390
H4K H -0.20940 0.05140 0.21210
H5K H -0.15570 0.10100 0.29870
H6K H -0.16890 0.03000 0.30690
H7K H -0.06270 0.03500 0.31940
H8K H -0.05550 0.08260 0.26610
H1K H -0.07240 -0.04480 0.25370
F1C F 0.4353(6) 0.4077(5) 0.3532(7)
F1H F 0.3532(6) 0.4353(5) 0.4077(7)
F2C F 0.3459(5) 0.3983(5) 0.3136(6)
F2H F 0.3136(5) 0.3459(5) 0.3983(6)
C6N C 0.2108(9) 0.28920 0.28920
C6BA C 0.2892(9) 0.21080 0.28920
C6KA C 0.2892(9) 0.28920 0.21080
#END

data_CSD_CIF_QITFAA
_audit_creation_date 2001-07-19
_audit_creation_method CSD-ConQuest-V1
_database_code_CSD QITFAA
_chemical_formula_sum 'C64 H108 N17 Ni6 O36 Sm1'
_chemical_formula_moiety
;
C4 H12 N1 1+,C60 H96 N12 Ni6 O24 Sm1 3+,4(N1 O3 1-)
;
_journal_coden_Cambridge 9
_journal_volume 39
_journal_year 2000
_journal_page_first 2509
_journal_name_full 'Inorg.Chem. '
loop_
_publ_author_name
"S.Igarashi"
"Y.Hoshino"
"Y.Masuda"
"Y.Yukawa"
_chemical_name_systematic
;
Tetramethylammonium dodecakis(\m~3~-L-prolinato)-hexa-nickel(ii)-samarium 
tetranitrate
;
_cell_volume   9785.239
_exptl_crystal_colour 'purple'
_exptl_crystal_density_diffrn 1.489
_exptl_crystal_description 'prismatic'
_exptl_crystal_preparation 'acetonitrile'
_diffrn_ambient_temperature ?
_diffrn_special_details
;
The study was carried out at room temperature,in the range 283-303K

;
#These two values have been output from a single CSD field.
_refine_ls_R_factor_gt 0.036
_refine_ls_wR_factor_gt 0.036
_symmetry_cell_setting cubic
_symmetry_space_group_name_H-M 'F 2 3'
_symmetry_Int_Tables_number 196
loop_
_symmetry_equiv_pos_site_id
_symmetry_equiv_pos_as_xyz
1 x,y,z
2 -x,-y,z
3 x,-y,-z
4 z,x,y
5 -x,y,-z
6 -z,-x,y
7 z,-x,-y
8 -z,x,-y
9 y,z,x
10 y,-z,-x
11 -y,z,-x
12 -y,-z,x
13 x,1/2+y,1/2+z
14 -x,1/2-y,1/2+z
15 x,1/2-y,1/2-z
16 z,1/2+x,1/2+y
17 -x,1/2+y,1/2-z
18 -z,1/2-x,1/2+y
19 z,1/2-x,1/2-y
20 -z,1/2+x,1/2-y
21 y,1/2+z,1/2+x
22 y,1/2-z,1/2-x
23 -y,1/2+z,1/2-x
24 -y,1/2-z,1/2+x
25 1/2+x,y,1/2+z
26 1/2-x,-y,1/2+z
27 1/2+x,-y,1/2-z
28 1/2+z,x,1/2+y
29 1/2-x,y,1/2-z
30 1/2-z,-x,1/2+y
31 1/2+z,-x,1/2-y
32 1/2-z,x,1/2-y
33 1/2+y,z,1/2+x
34 1/2+y,-z,1/2-x
35 1/2-y,z,1/2-x
36 1/2-y,-z,1/2+x
37 1/2+x,1/2+y,z
38 1/2-x,1/2-y,z
39 1/2+x,1/2-y,-z
40 1/2+z,1/2+x,y
41 1/2-x,1/2+y,-z
42 1/2-z,1/2-x,y
43 1/2+z,1/2-x,-y
44 1/2-z,1/2+x,-y
45 1/2+y,1/2+z,x
46 1/2+y,1/2-z,-x
47 1/2-y,1/2+z,-x
48 1/2-y,1/2-z,x
_cell_length_a 21.389(3)
_cell_length_b 21.389(3)
_cell_length_c 21.389(3)
_cell_angle_alpha 90
_cell_angle_beta 90
_cell_angle_gamma 90
_cell_formula_units_Z 4
loop_
_atom_type_symbol
_atom_type_radius_bond
C 0.68
H 0.23
N 0.68
Ni 1.50
O 0.68
Sm 1.75
loop_
_atom_site_label
_atom_site_type_symbol
_atom_site_fract_x
_atom_site_fract_y
_atom_site_fract_z
Sm1 Sm 0.00000 0.00000 0.00000
Ni1 Ni 0.17300(3) 0.00000 0.00000
O1 O 0.1058(2) 0.0677(2) 0.0012(5)
O2 O 0.1716(2) -0.0021(2) 0.0959(5)
O3 O 0.3509(8) 0.4281(7) 0.3974(9)
N1 N 0.2348(2) 0.0740(3) 0.0068(5)
N2 N 0.50000 0.50000 0.50000
N3 N 0.3916(8) 0.39160 0.39160
C1 C 0.1978(3) 0.1322(3) 0.000(1)
C2 C 0.2219(6) 0.1698(9) -0.047(1)
C3 C 0.2808(9) 0.1464(9) -0.062(1)
C4 C 0.2822(4) 0.0808(6) -0.0446(7)
C5 C 0.1273(3) 0.1230(3) 0.0028(8)
C6 C 0.5409(4) 0.54090 0.54090
H1 H 0.25510 0.07330 0.04760
H2 H 0.20680 0.15690 0.03680
H3 H 0.19710 0.15790 -0.09050
H4 H 0.22260 0.21020 -0.04710
H5 H 0.29420 0.14910 -0.11090
H6 H 0.31420 0.17000 -0.04440
H7 H 0.26910 0.05620 -0.08030
H8 H 0.32200 0.06960 -0.03260
O1B O 0.1058(2) -0.0677(2) -0.0012(5)
O1A O -0.1058(2) -0.0677(2) 0.0012(5)
Ni1A Ni -0.17300(3) 0.00000 0.00000
O1D O -0.1058(2) 0.0677(2) -0.0012(5)
O1C O 0.0012(2) 0.1058(2) 0.0677(5)
Ni1C Ni 0.00000(3) 0.17300 0.00000
O1G O -0.0012(2) 0.1058(2) -0.0677(5)
O1E O -0.0012(2) -0.1058(2) 0.0677(5)
Ni1E Ni 0.00000(3) -0.17300 0.00000
O1F O 0.0012(2) -0.1058(2) -0.0677(5)
O1H O 0.0677(2) 0.0012(2) 0.1058(5)
Ni1H Ni 0.00000(3) 0.00000 0.17300
O1K O -0.0677(2) -0.0012(2) 0.1058(5)
O1I O 0.0677(2) -0.0012(2) -0.1058(5)
Ni1I Ni 0.00000(3) 0.00000 -0.17300
O1J O -0.0677(2) 0.0012(2) -0.1058(5)
C5J C -0.1230(3) 0.0028(3) -0.1273(8)
O2D O -0.1716(2) -0.0021(2) -0.0959(5)
O2A O -0.1716(2) 0.0021(2) 0.0959(5)
C5K C -0.1230(3) -0.0028(3) 0.1273(8)
C1K C -0.1322(3) 0.0000(3) 0.1978(10)
N1K N -0.0740(2) -0.0068(3) 0.2348(5)
O2H O -0.0021(2) 0.0959(2) 0.1716(5)
C5C C 0.0028(3) 0.1273(3) 0.1230(8)
C1C C 0.0000(3) 0.1978(3) 0.1322(10)
N1C N 0.0068(2) 0.2348(3) 0.0740(5)
O2C O 0.0959(2) 0.1716(2) -0.0021(5)
C5H C 0.1230(3) 0.0028(3) 0.1273(8)
C1H C 0.1322(3) 0.0000(3) 0.1978(10)
N1H N 0.0740(2) 0.0068(3) 0.2348(5)
O2K O 0.0021(2) -0.0959(2) 0.1716(5)
C5E C -0.0028(3) -0.1273(3) 0.1230(8)
C1E C 0.0000(3) -0.1978(3) 0.1322(10)
N1E N -0.0068(2) -0.2348(3) 0.0740(5)
O2E O -0.0959(2) -0.1716(2) -0.0021(5)
C5A C -0.1273(3) -0.1230(3) 0.0028(8)
C1A C -0.1978(3) -0.1322(3) 0.000(1)
N1A N -0.2348(2) -0.0740(3) 0.0068(5)
N1D N -0.2348(2) 0.0740(3) -0.0068(5)
C1D C -0.1978(3) 0.1322(3) 0.000(1)
C2D C -0.2219(6) 0.1698(9) 0.047(1)
C3D C -0.2808(9) 0.1464(9) 0.062(1)
C4D C -0.2822(4) 0.0808(6) 0.0446(7)
H1D H -0.25510 0.07330 -0.04760
H7D H -0.26910 0.05620 0.08030
H8D H -0.32200 0.06960 0.03260
H5D H -0.29420 0.14910 0.11090
H6D H -0.31420 0.17000 0.04440
H3D H -0.19710 0.15790 0.09050
H4D H -0.22260 0.21020 0.04710
C5D C -0.1273(3) 0.1230(3) -0.0028(8)
O2G O -0.0959(2) 0.1716(2) 0.0021(5)
N1G N -0.0068(2) 0.2348(3) -0.0740(5)
C1G C 0.0000(3) 0.1978(3) -0.1322(10)
C2G C 0.0470(6) 0.2219(9) -0.1698(10)
C3G C 0.0620(9) 0.2808(9) -0.1464(10)
C4G C 0.0446(4) 0.2822(6) -0.0808(7)
H1G H -0.04760 0.25510 -0.07330
H7G H 0.08030 0.26910 -0.05620
H8G H 0.03260 0.32200 -0.06960
H5G H 0.11090 0.29420 -0.14910
H6G H 0.04440 0.31420 -0.17000
H3G H 0.09050 0.19710 -0.15790
H4G H 0.04710 0.22260 -0.21020
C5G C -0.0028(3) 0.1273(3) -0.1230(8)
O2J O 0.0021(2) 0.0959(2) -0.1716(5)
O2I O -0.0021(2) -0.0959(2) -0.1716(5)
C5F C 0.0028(3) -0.1273(3) -0.1230(8)
C1F C 0.0000(3) -0.1978(3) -0.1322(10)
N1F N 0.0068(2) -0.2348(3) -0.0740(5)
O2F O 0.0959(2) -0.1716(2) 0.0021(5)
C5B C 0.1273(3) -0.1230(3) -0.0028(8)
C1B C 0.1978(3) -0.1322(3) 0.000(1)
N1B N 0.2348(2) -0.0740(3) -0.0068(5)
O2B O 0.1716(2) 0.0021(2) -0.0959(5)
C5I C 0.1230(3) -0.0028(3) -0.1273(8)
C1I C 0.1322(3) 0.0000(3) -0.1978(10)
N1I N 0.0740(2) -0.0068(3) -0.2348(5)
N1J N -0.0740(2) 0.0068(3) -0.2348(5)
C1J C -0.1322(3) 0.0000(3) -0.1978(10)
C2J C -0.1698(6) -0.0470(9) -0.2219(10)
C3J C -0.1464(9) -0.0620(9) -0.2808(10)
C4J C -0.0808(4) -0.0446(6) -0.2822(7)
H1J H -0.07330 0.04760 -0.25510
H7J H -0.05620 -0.08030 -0.26910
H8J H -0.06960 -0.03260 -0.32200
H5J H -0.14910 -0.11090 -0.29420
H6J H -0.17000 -0.04440 -0.31420
H3J H -0.15790 -0.09050 -0.19710
H4J H -0.21020 -0.04710 -0.22260
H2J H -0.15690 0.03680 -0.20680
C4I C 0.0808(4) 0.0446(6) -0.2822(7)
C3I C 0.1464(9) 0.0620(9) -0.2808(10)
C2I C 0.1698(6) 0.0470(9) -0.2219(10)
H2I H 0.15690 -0.03680 -0.20680
H3I H 0.15790 0.09050 -0.19710
H4I H 0.21020 0.04710 -0.22260
H5I H 0.14910 0.11090 -0.29420
H6I H 0.17000 0.04440 -0.31420
H7I H 0.05620 0.08030 -0.26910
H8I H 0.06960 0.03260 -0.32200
H1I H 0.07330 -0.04760 -0.25510
C4B C 0.2822(4) -0.0808(6) 0.0446(7)
C3B C 0.2808(9) -0.1464(9) 0.062(1)
C2B C 0.2219(6) -0.1698(9) 0.047(1)
H2B H 0.20680 -0.15690 -0.03680
H3B H 0.19710 -0.15790 0.09050
H4B H 0.22260 -0.21020 0.04710
H5B H 0.29420 -0.14910 0.11090
H6B H 0.31420 -0.17000 0.04440
H7B H 0.26910 -0.05620 0.08030
H8B H 0.32200 -0.06960 0.03260
H1B H 0.25510 -0.07330 -0.04760
C4F C -0.0446(4) -0.2822(6) -0.0808(7)
C3F C -0.0620(9) -0.2808(9) -0.1464(10)
C2F C -0.0470(6) -0.2219(9) -0.1698(10)
H2F H 0.03680 -0.20680 -0.15690
H3F H -0.09050 -0.19710 -0.15790
H4F H -0.04710 -0.22260 -0.21020
H5F H -0.11090 -0.29420 -0.14910
H6F H -0.04440 -0.31420 -0.17000
H7F H -0.08030 -0.26910 -0.05620
H8F H -0.03260 -0.32200 -0.06960
H1F H 0.04760 -0.25510 -0.07330
H2G H -0.03680 0.20680 -0.15690
H2D H -0.20680 0.15690 -0.03680
C4A C -0.2822(4) -0.0808(6) -0.0446(7)
C3A C -0.2808(9) -0.1464(9) -0.062(1)
C2A C -0.2219(6) -0.1698(9) -0.047(1)
H2A H -0.20680 -0.15690 0.03680
H3A H -0.19710 -0.15790 -0.09050
H4A H -0.22260 -0.21020 -0.04710
H5A H -0.29420 -0.14910 -0.11090
H6A H -0.31420 -0.17000 -0.04440
H7A H -0.26910 -0.05620 -0.08030
H8A H -0.32200 -0.06960 -0.03260
H1A H -0.25510 -0.07330 0.04760
C4E C 0.0446(4) -0.2822(6) 0.0808(7)
C3E C 0.0620(9) -0.2808(9) 0.1464(10)
C2E C 0.0470(6) -0.2219(9) 0.1698(10)
H2E H -0.03680 -0.20680 0.15690
H3E H 0.09050 -0.19710 0.15790
H4E H 0.04710 -0.22260 0.21020
H5E H 0.11090 -0.29420 0.14910
H6E H 0.04440 -0.31420 0.17000
H7E H 0.08030 -0.26910 0.05620
H8E H 0.03260 -0.32200 0.06960
H1E H -0.04760 -0.25510 0.07330
C4H C 0.0808(4) -0.0446(6) 0.2822(7)
C3H C 0.1464(9) -0.0620(9) 0.2808(10)
C2H C 0.1698(6) -0.0470(9) 0.2219(10)
H2H H 0.15690 0.03680 0.20680
H3H H 0.15790 -0.09050 0.19710
H4H H 0.21020 -0.04710 0.22260
H5H H 0.14910 -0.11090 0.29420
H6H H 0.17000 -0.04440 0.31420
H7H H 0.05620 -0.08030 0.26910
H8H H 0.06960 -0.03260 0.32200
H1H H 0.07330 0.04760 0.25510
C4C C -0.0446(4) 0.2822(6) 0.0808(7)
C3C C -0.0620(9) 0.2808(9) 0.1464(10)
C2C C -0.0470(6) 0.2219(9) 0.1698(10)
H2C H 0.03680 0.20680 0.15690
H3C H -0.09050 0.19710 0.15790
H4C H -0.04710 0.22260 0.21020
H5C H -0.11090 0.29420 0.14910
H6C H -0.04440 0.31420 0.17000
H7C H -0.08030 0.26910 0.05620
H8C H -0.03260 0.32200 0.06960
H1C H 0.04760 0.25510 0.07330
C4K C -0.0808(4) 0.0446(6) 0.2822(7)
C3K C -0.1464(9) 0.0620(9) 0.2808(10)
C2K C -0.1698(6) 0.0470(9) 0.2219(10)
H2K H -0.15690 -0.03680 0.20680
H3K H -0.15790 0.09050 0.19710
H4K H -0.21020 0.04710 0.22260
H5K H -0.14910 0.11090 0.29420
H6K H -0.17000 0.04440 0.31420
H7K H -0.05620 0.08030 0.26910
H8K H -0.06960 0.03260 0.32200
H1K H -0.07330 -0.04760 0.25510
O3H O 0.4281(8) 0.3974(7) 0.3509(9)
O3C O 0.3974(8) 0.3509(7) 0.4281(9)
C6A C 0.4591(4) 0.45910 0.54090
C6B C 0.5409(4) 0.45910 0.45910
C6D C 0.4591(4) 0.54090 0.45910
#END

data_CSD_CIF_RALXUY
_audit_creation_date 2005-08-18
_audit_creation_method CSD-ConQuest-V1
_database_code_CSD RALXUY
_database_code_depnum_ccdc_archive 'CCDC 253529'
_chemical_formula_sum 'C64 H108 Cl4 Gd1 N13 Ni6 O40'
_chemical_formula_moiety
;
C4 H12 N1 1+,C60 H96 Gd1 N12 Ni6 O24 3+,4(Cl1 O4 1-)
;
_journal_coden_Cambridge 179
_journal_volume 44
_journal_year 2005
_journal_page_first 1997
_journal_name_full 'Angew.Chem.,Int.Ed. '
loop_
_publ_author_name
"Y.Yukawa"
"G.Aromi"
"S.Igarashi"
"J.Ribas"
"S.A.Zvyagin"
"J.Krzystek"
_chemical_name_systematic
;
Tetramethylammonium 
dodecakis(\m~3~-prolinato-O,O')-hexa-nickel(ii)-gadolinium(iii) 
tetraperchlorate
;
_cell_volume   9629.610
_exptl_crystal_colour 'violet'
_exptl_crystal_density_diffrn 1.621
_exptl_special_details
;
paramagnetic

;
_exptl_crystal_description 'tetrahedron'
_diffrn_ambient_temperature 296.2
#These two values have been output from a single CSD field.
_refine_ls_R_factor_gt 0.0415
_refine_ls_wR_factor_gt 0.0415
_symmetry_cell_setting cubic
_symmetry_space_group_name_H-M 'F 2 3'
_symmetry_Int_Tables_number 196
loop_
_symmetry_equiv_pos_site_id
_symmetry_equiv_pos_as_xyz
1 x,y,z
2 z,x,y
3 y,z,x
4 x,-y,-z
5 z,-x,-y
6 y,-z,-x
7 -x,y,-z
8 -z,x,-y
9 -y,z,-x
10 -x,-y,z
11 -z,-x,y
12 -y,-z,x
13 x,1/2+y,1/2+z
14 z,1/2+x,1/2+y
15 y,1/2+z,1/2+x
16 x,1/2-y,1/2-z
17 z,1/2-x,1/2-y
18 y,1/2-z,1/2-x
19 -x,1/2+y,1/2-z
20 -z,1/2+x,1/2-y
21 -y,1/2+z,1/2-x
22 -x,1/2-y,1/2+z
23 -z,1/2-x,1/2+y
24 -y,1/2-z,1/2+x
25 1/2+x,y,1/2+z
26 1/2+z,x,1/2+y
27 1/2+y,z,1/2+x
28 1/2+x,-y,1/2-z
29 1/2+z,-x,1/2-y
30 1/2+y,-z,1/2-x
31 1/2-x,y,1/2-z
32 1/2-z,x,1/2-y
33 1/2-y,z,1/2-x
34 1/2-x,-y,1/2+z
35 1/2-z,-x,1/2+y
36 1/2-y,-z,1/2+x
37 1/2+x,1/2+y,z
38 1/2+z,1/2+x,y
39 1/2+y,1/2+z,x
40 1/2+x,1/2-y,-z
41 1/2+z,1/2-x,-y
42 1/2+y,1/2-z,-x
43 1/2-x,1/2+y,-z
44 1/2-z,1/2+x,-y
45 1/2-y,1/2+z,-x
46 1/2-x,1/2-y,z
47 1/2-z,1/2-x,y
48 1/2-y,1/2-z,x
_cell_length_a 21.275(1)
_cell_length_b 21.275(1)
_cell_length_c 21.275(1)
_cell_angle_alpha 90
_cell_angle_beta 90
_cell_angle_gamma 90
_cell_formula_units_Z 4
loop_
_atom_type_symbol
_atom_type_radius_bond
C 0.68
H 0.23
Cl 0.99
Gd 1.79
N 0.68
Ni 1.50
O 0.68
loop_
_atom_site_label
_atom_site_type_symbol
_atom_site_fract_x
_atom_site_fract_y
_atom_site_fract_z
Gd1 Gd 0.00000 0.00000 0.00000
Ni1 Ni 0.17377(3) 0.00000 0.00000
Cl1 Cl 0.3742(2) 0.37420 0.37420
O1 O 0.1062(1) 0.0678(1) 0.0001(3)
O2 O 0.1728(2) 0.0007(1) 0.0964(4)
O3 O 0.4092(10) 0.40920 0.40920
O4 O 0.3209(8) 0.409(1) 0.3731(10)
N1 N 0.2359(2) 0.0738(2) 0.0078(3)
N2 N 0.25000 0.25000 0.25000
C1 C 0.1979(2) 0.1330(3) -0.0005(9)
C2 C 0.2244(6) 0.1681(7) -0.046(1)
C3 C 0.2855(7) 0.1450(7) -0.060(1)
C4 C 0.2837(4) 0.0818(5) -0.0431(5)
C5 C 0.1284(2) 0.1231(2) 0.0033(4)
C6 C 0.205(1) 0.20520 0.20520
H1 H 0.25570 0.07360 0.04800
H2 H 0.20680 0.15610 0.03680
H3 H 0.22780 0.21070 -0.03170
H4 H 0.19900 0.16700 -0.08250
H5 H 0.31630 0.16670 -0.03630
H6 H 0.29400 0.14960 -0.10360
H7 H 0.32390 0.06890 -0.02880
H8 H 0.27210 0.05710 -0.07880
Ni1A Ni 0.00000(3) 0.17377 0.00000
Ni1B Ni 0.00000(3) 0.00000 0.17377
Ni1D Ni 0.00000(3) -0.17377 0.00000
Ni1E Ni 0.00000(3) 0.00000 -0.17377
Ni1F Ni -0.17377(3) 0.00000 0.00000
O1C O 0.1062(1) -0.0678(1) -0.0001(3)
O1A O 0.0001(1) 0.1062(1) 0.0678(3)
O1G O -0.0001(1) 0.1062(1) -0.0678(3)
O1B O 0.0678(1) 0.0001(1) 0.1062(3)
O1K O -0.0678(1) -0.0001(1) 0.1062(3)
O1D O 0.0001(1) -0.1062(1) -0.0678(3)
O1J O -0.0001(1) -0.1062(1) 0.0678(3)
O1E O 0.0678(1) -0.0001(1) -0.1062(3)
O1H O -0.0678(1) 0.0001(1) -0.1062(3)
O1F O -0.1062(1) 0.0678(1) -0.0001(3)
O1I O -0.1062(1) -0.0678(1) 0.0001(3)
O2J O -0.0964(2) -0.1728(1) 0.0007(4)
O2D O 0.0964(2) -0.1728(1) -0.0007(4)
O2B O 0.0007(2) 0.0964(1) 0.1728(4)
O2A O 0.0964(2) 0.1728(1) 0.0007(4)
O2C O 0.1728(2) -0.0007(1) -0.0964(4)
O2E O 0.0007(2) -0.0964(1) -0.1728(4)
O2K O -0.0007(2) -0.0964(1) 0.1728(4)
O2I O -0.1728(2) -0.0007(1) 0.0964(4)
O2F O -0.1728(2) 0.0007(1) -0.0964(4)
O2H O -0.0007(2) 0.0964(1) -0.1728(4)
O2G O -0.0964(2) 0.1728(1) -0.0007(4)
O4A O 0.3731(8) 0.3209(10) 0.409(1)
O4B O 0.4090(8) 0.3731(10) 0.3209(10)
N1C N 0.2359(2) -0.0738(2) -0.0078(3)
N1B N 0.0738(2) 0.0078(2) 0.2359(3)
N1A N 0.0078(2) 0.2359(2) 0.0738(3)
N1E N 0.0738(2) -0.0078(2) -0.2359(3)
N1D N 0.0078(2) -0.2359(2) -0.0738(3)
N1J N -0.0078(2) -0.2359(2) 0.0738(3)
N1K N -0.0738(2) -0.0078(2) 0.2359(3)
N1H N -0.0738(2) 0.0078(2) -0.2359(3)
N1G N -0.0078(2) 0.2359(2) -0.0738(3)
N1F N -0.2359(2) 0.0738(2) -0.0078(3)
N1I N -0.2359(2) -0.0738(2) 0.0078(3)
C1C C 0.1979(2) -0.1330(3) 0.0005(9)
C1B C 0.1330(2) -0.0005(3) 0.1979(9)
C1A C -0.0005(2) 0.1979(3) 0.1330(9)
C1E C 0.1330(2) 0.0005(3) -0.1979(9)
C1D C -0.0005(2) -0.1979(3) -0.1330(9)
C1J C 0.0005(2) -0.1979(3) 0.1330(9)
C1K C -0.1330(2) 0.0005(3) 0.1979(9)
C1H C -0.1330(2) -0.0005(3) -0.1979(9)
C1G C 0.0005(2) 0.1979(3) -0.1330(9)
C1F C -0.1979(2) 0.1330(3) 0.0005(9)
C1I C -0.1979(2) -0.1330(3) -0.0005(9)
C2J C 0.0460(6) -0.2244(7) 0.1681(10)
C2K C -0.1681(6) 0.0460(7) 0.2244(10)
C2I C -0.2244(6) -0.1681(7) -0.046(1)
C2F C -0.2244(6) 0.1681(7) 0.046(1)
C2G C 0.0460(6) 0.2244(7) -0.1681(10)
C2H C -0.1681(6) -0.0460(7) -0.2244(10)
C2D C -0.0460(6) -0.2244(7) -0.1681(10)
C2E C 0.1681(6) 0.0460(7) -0.2244(10)
C2A C -0.0460(6) 0.2244(7) 0.1681(10)
C2B C 0.1681(6) -0.0460(7) 0.2244(10)
C2C C 0.2244(6) -0.1681(7) 0.046(1)
C3J C 0.0600(7) -0.2855(7) 0.145(1)
C3K C -0.1450(7) 0.0600(7) 0.2855(10)
C3I C -0.2855(7) -0.1450(7) -0.060(1)
C3F C -0.2855(7) 0.1450(7) 0.060(1)
C3G C 0.0600(7) 0.2855(7) -0.145(1)
C3H C -0.1450(7) -0.0600(7) -0.2855(10)
C3D C -0.0600(7) -0.2855(7) -0.145(1)
C3E C 0.1450(7) 0.0600(7) -0.2855(10)
C3A C -0.0600(7) 0.2855(7) 0.145(1)
C3B C 0.1450(7) -0.0600(7) 0.2855(10)
C3C C 0.2855(7) -0.1450(7) 0.060(1)
C4J C 0.0431(4) -0.2837(5) 0.0818(5)
C4K C -0.0818(4) 0.0431(5) 0.2837(5)
C4I C -0.2837(4) -0.0818(5) -0.0431(5)
C4F C -0.2837(4) 0.0818(5) 0.0431(5)
C4G C 0.0431(4) 0.2837(5) -0.0818(5)
C4H C -0.0818(4) -0.0431(5) -0.2837(5)
C4D C -0.0431(4) -0.2837(5) -0.0818(5)
C4E C 0.0818(4) 0.0431(5) -0.2837(5)
C4A C -0.0431(4) 0.2837(5) 0.0818(5)
C4B C 0.0818(4) -0.0431(5) 0.2837(5)
C4C C 0.2837(4) -0.0818(5) 0.0431(5)
C5I C -0.1284(2) -0.1231(2) 0.0033(4)
C5C C 0.1284(2) -0.1231(2) -0.0033(4)
C5B C 0.1231(2) 0.0033(2) 0.1284(4)
C5A C 0.0033(2) 0.1284(2) 0.1231(4)
C5E C 0.1231(2) -0.0033(2) -0.1284(4)
C5D C 0.0033(2) -0.1284(2) -0.1231(4)
C5J C -0.0033(2) -0.1284(2) 0.1231(4)
C5K C -0.1231(2) -0.0033(2) 0.1284(4)
C5H C -0.1231(2) 0.0033(2) -0.1284(4)
C5G C -0.0033(2) 0.1284(2) -0.1231(4)
C5F C -0.1284(2) 0.1231(2) -0.0033(4)
C6O C 0.205(1) 0.29480 0.29480
C6DA C 0.295(1) 0.20520 0.29480
C6SA C 0.295(1) 0.29480 0.20520
H1J H -0.04800 -0.25570 0.07360
H1K H -0.07360 -0.04800 0.25570
H1I H -0.25570 -0.07360 0.04800
H1F H -0.25570 0.07360 -0.04800
H1G H -0.04800 0.25570 -0.07360
H1H H -0.07360 0.04800 -0.25570
H1D H 0.04800 -0.25570 -0.07360
H1E H 0.07360 -0.04800 -0.25570
H1A H 0.04800 0.25570 0.07360
H1B H 0.07360 0.04800 0.25570
H1C H 0.25570 -0.07360 -0.04800
H2I H -0.20680 -0.15610 0.03680
H2F H -0.20680 0.15610 -0.03680
H2G H -0.03680 0.20680 -0.15610
H2H H -0.15610 0.03680 -0.20680
H2K H -0.15610 -0.03680 0.20680
H2J H -0.03680 -0.20680 0.15610
H2D H 0.03680 -0.20680 -0.15610
H2E H 0.15610 -0.03680 -0.20680
H2A H 0.03680 0.20680 0.15610
H2B H 0.15610 0.03680 0.20680
H2C H 0.20680 -0.15610 -0.03680
H3J H 0.03170 -0.22780 0.21070
H3K H -0.21070 0.03170 0.22780
H3I H -0.22780 -0.21070 -0.03170
H3F H -0.22780 0.21070 0.03170
H3G H 0.03170 0.22780 -0.21070
H3H H -0.21070 -0.03170 -0.22780
H3D H -0.03170 -0.22780 -0.21070
H3E H 0.21070 0.03170 -0.22780
H3A H -0.03170 0.22780 0.21070
H3B H 0.21070 -0.03170 0.22780
H3C H 0.22780 -0.21070 0.03170
H4J H 0.08250 -0.19900 0.16700
H4K H -0.16700 0.08250 0.19900
H4I H -0.19900 -0.16700 -0.08250
H4F H -0.19900 0.16700 0.08250
H4G H 0.08250 0.19900 -0.16700
H4H H -0.16700 -0.08250 -0.19900
H4D H -0.08250 -0.19900 -0.16700
H4E H 0.16700 0.08250 -0.19900
H4A H -0.08250 0.19900 0.16700
H4B H 0.16700 -0.08250 0.19900
H4C H 0.19900 -0.16700 0.08250
H5J H 0.03630 -0.31630 0.16670
H5K H -0.16670 0.03630 0.31630
H5I H -0.31630 -0.16670 -0.03630
H5F H -0.31630 0.16670 0.03630
H5G H 0.03630 0.31630 -0.16670
H5H H -0.16670 -0.03630 -0.31630
H5D H -0.03630 -0.31630 -0.16670
H5E H 0.16670 0.03630 -0.31630
H5A H -0.03630 0.31630 0.16670
H5B H 0.16670 -0.03630 0.31630
H5C H 0.31630 -0.16670 0.03630
H6J H 0.10360 -0.29400 0.14960
H6K H -0.14960 0.10360 0.29400
H6I H -0.29400 -0.14960 -0.10360
H6F H -0.29400 0.14960 0.10360
H6G H 0.10360 0.29400 -0.14960
H6H H -0.14960 -0.10360 -0.29400
H6D H -0.10360 -0.29400 -0.14960
H6E H 0.14960 0.10360 -0.29400
H6A H -0.10360 0.29400 0.14960
H6B H 0.14960 -0.10360 0.29400
H6C H 0.29400 -0.14960 0.10360
H7J H 0.02880 -0.32390 0.06890
H7K H -0.06890 0.02880 0.32390
H7I H -0.32390 -0.06890 -0.02880
H7F H -0.32390 0.06890 0.02880
H7G H 0.02880 0.32390 -0.06890
H7H H -0.06890 -0.02880 -0.32390
H7D H -0.02880 -0.32390 -0.06890
H7E H 0.06890 0.02880 -0.32390
H7A H -0.02880 0.32390 0.06890
H7B H 0.06890 -0.02880 0.32390
H7C H 0.32390 -0.06890 0.02880
H8J H 0.07880 -0.27210 0.05710
H8K H -0.05710 0.07880 0.27210
H8I H -0.27210 -0.05710 -0.07880
H8F H -0.27210 0.05710 0.07880
H8G H 0.07880 0.27210 -0.05710
H8H H -0.05710 -0.07880 -0.27210
H8D H -0.07880 -0.27210 -0.05710
H8E H 0.05710 0.07880 -0.27210
H8A H -0.07880 0.27210 0.05710
H8B H 0.05710 -0.07880 0.27210
H8C H 0.27210 -0.05710 0.07880
#END

data_CSD_CIF_RALYAF
_audit_creation_date 2005-08-18
_audit_creation_method CSD-ConQuest-V1
_database_code_CSD RALYAF
_database_code_depnum_ccdc_archive 'CCDC 253530'
_chemical_formula_sum 'C64 H108 Cl4 La1 N13 Ni6 O40'
_chemical_formula_moiety
;
C4 H12 N1 1+,C60 H96 La1 N12 Ni6 O24 3+,4(Cl1 O4 1-)
;
_journal_coden_Cambridge 179
_journal_volume 44
_journal_year 2005
_journal_page_first 1997
_journal_name_full 'Angew.Chem.,Int.Ed. '
loop_
_publ_author_name
"Y.Yukawa"
"G.Aromi"
"S.Igarashi"
"J.Ribas"
"S.A.Zvyagin"
"J.Krzystek"
_chemical_name_systematic
;
Tetramethylammonium 
dodecakis(\m~3~-prolinato-O,O')-hexa-nickel(ii)-lanthanum(iii) 
tetraperchlorate
;
_cell_volume   9670.404
_exptl_crystal_colour 'violet'
_exptl_crystal_density_diffrn 1.602
_exptl_crystal_description 'tetrahedron'
_diffrn_ambient_temperature 296.2
#These two values have been output from a single CSD field.
_refine_ls_R_factor_gt 0.0379
_refine_ls_wR_factor_gt 0.0379
_symmetry_cell_setting cubic
_symmetry_space_group_name_H-M 'F 2 3'
_symmetry_Int_Tables_number 196
loop_
_symmetry_equiv_pos_site_id
_symmetry_equiv_pos_as_xyz
1 x,y,z
2 z,x,y
3 y,z,x
4 x,-y,-z
5 z,-x,-y
6 y,-z,-x
7 -x,y,-z
8 -z,x,-y
9 -y,z,-x
10 -x,-y,z
11 -z,-x,y
12 -y,-z,x
13 x,1/2+y,1/2+z
14 z,1/2+x,1/2+y
15 y,1/2+z,1/2+x
16 x,1/2-y,1/2-z
17 z,1/2-x,1/2-y
18 y,1/2-z,1/2-x
19 -x,1/2+y,1/2-z
20 -z,1/2+x,1/2-y
21 -y,1/2+z,1/2-x
22 -x,1/2-y,1/2+z
23 -z,1/2-x,1/2+y
24 -y,1/2-z,1/2+x
25 1/2+x,y,1/2+z
26 1/2+z,x,1/2+y
27 1/2+y,z,1/2+x
28 1/2+x,-y,1/2-z
29 1/2+z,-x,1/2-y
30 1/2+y,-z,1/2-x
31 1/2-x,y,1/2-z
32 1/2-z,x,1/2-y
33 1/2-y,z,1/2-x
34 1/2-x,-y,1/2+z
35 1/2-z,-x,1/2+y
36 1/2-y,-z,1/2+x
37 1/2+x,1/2+y,z
38 1/2+z,1/2+x,y
39 1/2+y,1/2+z,x
40 1/2+x,1/2-y,-z
41 1/2+z,1/2-x,-y
42 1/2+y,1/2-z,-x
43 1/2-x,1/2+y,-z
44 1/2-z,1/2+x,-y
45 1/2-y,1/2+z,-x
46 1/2-x,1/2-y,z
47 1/2-z,1/2-x,y
48 1/2-y,1/2-z,x
_cell_length_a 21.305(2)
_cell_length_b 21.305(2)
_cell_length_c 21.305(2)
_cell_angle_alpha 90
_cell_angle_beta 90
_cell_angle_gamma 90
_cell_formula_units_Z 4
loop_
_atom_type_symbol
_atom_type_radius_bond
C 0.68
H 0.23
Cl 0.99
La 1.87
N 0.68
Ni 1.43
O 0.68
loop_
_atom_site_label
_atom_site_type_symbol
_atom_site_fract_x
_atom_site_fract_y
_atom_site_fract_z
La1 La 0.00000 0.00000 0.00000
Ni1 Ni 0.17420(3) 0.00000 0.00000
Cl1 Cl 0.3742(2) 0.37420 0.37420
O1 O 0.1074(1) 0.0684(1) 0.0002(3)
O2 O 0.1730(1) 0.0003(1) 0.0969(4)
O3 O 0.4103(6) 0.41030 0.41030
O4 O 0.3240(8) 0.410(1) 0.3747(8)
N1 N 0.2364(2) 0.0742(2) 0.0076(3)
N2 N 0.25000 0.25000 0.25000
C1 C 0.1987(2) 0.1333(2) -0.0002(8)
C2 C 0.2235(6) 0.1658(7) -0.0518(9)
C3 C 0.2869(6) 0.1448(6) -0.0629(7)
C4 C 0.2843(4) 0.0813(5) -0.0430(5)
C5 C 0.1289(2) 0.1238(2) 0.0036(4)
C6 C 0.2130(9) 0.21300 0.21300
H1 H 0.25720 0.07200 0.04820
H2 H 0.20860 0.15770 0.03930
H3 H 0.22280 0.21030 -0.03590
H4 H 0.19770 0.16000 -0.08210
H5 H 0.31340 0.16750 -0.03060
H6 H 0.29600 0.15460 -0.10010
H7 H 0.32340 0.06450 -0.03240
H8 H 0.26930 0.05650 -0.08050
Ni1A Ni 0.00000(3) 0.17420 0.00000
Ni1B Ni 0.00000(3) 0.00000 0.17420
Ni1D Ni 0.00000(3) -0.17420 0.00000
Ni1E Ni 0.00000(3) 0.00000 -0.17420
Ni1F Ni -0.17420(3) 0.00000 0.00000
O1C O 0.1074(1) -0.0684(1) -0.0002(3)
O1A O 0.0002(1) 0.1074(1) 0.0684(3)
O1G O -0.0002(1) 0.1074(1) -0.0684(3)
O1B O 0.0684(1) 0.0002(1) 0.1074(3)
O1K O -0.0684(1) -0.0002(1) 0.1074(3)
O1D O 0.0002(1) -0.1074(1) -0.0684(3)
O1J O -0.0002(1) -0.1074(1) 0.0684(3)
O1E O 0.0684(1) -0.0002(1) -0.1074(3)
O1H O -0.0684(1) 0.0002(1) -0.1074(3)
O1F O -0.1074(1) 0.0684(1) -0.0002(3)
O1I O -0.1074(1) -0.0684(1) 0.0002(3)
O2J O -0.0969(1) -0.1730(1) 0.0003(4)
O2D O 0.0969(1) -0.1730(1) -0.0003(4)
O2B O 0.0003(1) 0.0969(1) 0.1730(4)
O2A O 0.0969(1) 0.1730(1) 0.0003(4)
O2C O 0.1730(1) -0.0003(1) -0.0969(4)
O2E O 0.0003(1) -0.0969(1) -0.1730(4)
O2K O -0.0003(1) -0.0969(1) 0.1730(4)
O2I O -0.1730(1) -0.0003(1) 0.0969(4)
O2F O -0.1730(1) 0.0003(1) -0.0969(4)
O2H O -0.0003(1) 0.0969(1) -0.1730(4)
O2G O -0.0969(1) 0.1730(1) -0.0003(4)
O4A O 0.3747(8) 0.324(1) 0.4100(8)
O4B O 0.4100(8) 0.3747(10) 0.3240(8)
N1C N 0.2364(2) -0.0742(2) -0.0076(3)
N1B N 0.0742(2) 0.0076(2) 0.2364(3)
N1A N 0.0076(2) 0.2364(2) 0.0742(3)
N1E N 0.0742(2) -0.0076(2) -0.2364(3)
N1D N 0.0076(2) -0.2364(2) -0.0742(3)
N1J N -0.0076(2) -0.2364(2) 0.0742(3)
N1K N -0.0742(2) -0.0076(2) 0.2364(3)
N1H N -0.0742(2) 0.0076(2) -0.2364(3)
N1G N -0.0076(2) 0.2364(2) -0.0742(3)
N1F N -0.2364(2) 0.0742(2) -0.0076(3)
N1I N -0.2364(2) -0.0742(2) 0.0076(3)
C1C C 0.1987(2) -0.1333(2) 0.0002(8)
C1B C 0.1333(2) -0.0002(2) 0.1987(8)
C1A C -0.0002(2) 0.1987(2) 0.1333(8)
C1E C 0.1333(2) 0.0002(2) -0.1987(8)
C1D C -0.0002(2) -0.1987(2) -0.1333(8)
C1J C 0.0002(2) -0.1987(2) 0.1333(8)
C1K C -0.1333(2) 0.0002(2) 0.1987(8)
C1H C -0.1333(2) -0.0002(2) -0.1987(8)
C1G C 0.0002(2) 0.1987(2) -0.1333(8)
C1F C -0.1987(2) 0.1333(2) 0.0002(8)
C1I C -0.1987(2) -0.1333(2) -0.0002(8)
C2J C 0.0518(6) -0.2235(7) 0.1658(9)
C2K C -0.1658(6) 0.0518(7) 0.2235(9)
C2I C -0.2235(6) -0.1658(7) -0.0518(9)
C2F C -0.2235(6) 0.1658(7) 0.0518(9)
C2G C 0.0518(6) 0.2235(7) -0.1658(9)
C2H C -0.1658(6) -0.0518(7) -0.2235(9)
C2D C -0.0518(6) -0.2235(7) -0.1658(9)
C2E C 0.1658(6) 0.0518(7) -0.2235(9)
C2A C -0.0518(6) 0.2235(7) 0.1658(9)
C2B C 0.1658(6) -0.0518(7) 0.2235(9)
C2C C 0.2235(6) -0.1658(7) 0.0518(9)
C3J C 0.0629(6) -0.2869(6) 0.1448(7)
C3K C -0.1448(6) 0.0629(6) 0.2869(7)
C3I C -0.2869(6) -0.1448(6) -0.0629(7)
C3F C -0.2869(6) 0.1448(6) 0.0629(7)
C3G C 0.0629(6) 0.2869(6) -0.1448(7)
C3H C -0.1448(6) -0.0629(6) -0.2869(7)
C3D C -0.0629(6) -0.2869(6) -0.1448(7)
C3E C 0.1448(6) 0.0629(6) -0.2869(7)
C3A C -0.0629(6) 0.2869(6) 0.1448(7)
C3B C 0.1448(6) -0.0629(6) 0.2869(7)
C3C C 0.2869(6) -0.1448(6) 0.0629(7)
C4J C 0.0430(4) -0.2843(5) 0.0813(5)
C4K C -0.0813(4) 0.0430(5) 0.2843(5)
C4I C -0.2843(4) -0.0813(5) -0.0430(5)
C4F C -0.2843(4) 0.0813(5) 0.0430(5)
C4G C 0.0430(4) 0.2843(5) -0.0813(5)
C4H C -0.0813(4) -0.0430(5) -0.2843(5)
C4D C -0.0430(4) -0.2843(5) -0.0813(5)
C4E C 0.0813(4) 0.0430(5) -0.2843(5)
C4A C -0.0430(4) 0.2843(5) 0.0813(5)
C4B C 0.0813(4) -0.0430(5) 0.2843(5)
C4C C 0.2843(4) -0.0813(5) 0.0430(5)
C5I C -0.1289(2) -0.1238(2) 0.0036(4)
C5C C 0.1289(2) -0.1238(2) -0.0036(4)
C5B C 0.1238(2) 0.0036(2) 0.1289(4)
C5A C 0.0036(2) 0.1289(2) 0.1238(4)
C5E C 0.1238(2) -0.0036(2) -0.1289(4)
C5D C 0.0036(2) -0.1289(2) -0.1238(4)
C5J C -0.0036(2) -0.1289(2) 0.1238(4)
C5K C -0.1238(2) -0.0036(2) 0.1289(4)
C5H C -0.1238(2) 0.0036(2) -0.1289(4)
C5G C -0.0036(2) 0.1289(2) -0.1238(4)
C5F C -0.1289(2) 0.1238(2) -0.0036(4)
C6O C 0.2130(9) 0.28700 0.28700
C6DA C 0.2870(9) 0.21300 0.28700
C6SA C 0.2870(9) 0.28700 0.21300
H1J H -0.04820 -0.25720 0.07200
H1K H -0.07200 -0.04820 0.25720
H1I H -0.25720 -0.07200 0.04820
H1F H -0.25720 0.07200 -0.04820
H1G H -0.04820 0.25720 -0.07200
H1H H -0.07200 0.04820 -0.25720
H1D H 0.04820 -0.25720 -0.07200
H1E H 0.07200 -0.04820 -0.25720
H1A H 0.04820 0.25720 0.07200
H1B H 0.07200 0.04820 0.25720
H1C H 0.25720 -0.07200 -0.04820
H2I H -0.20860 -0.15770 0.03930
H2F H -0.20860 0.15770 -0.03930
H2G H -0.03930 0.20860 -0.15770
H2H H -0.15770 0.03930 -0.20860
H2K H -0.15770 -0.03930 0.20860
H2J H -0.03930 -0.20860 0.15770
H2D H 0.03930 -0.20860 -0.15770
H2E H 0.15770 -0.03930 -0.20860
H2A H 0.03930 0.20860 0.15770
H2B H 0.15770 0.03930 0.20860
H2C H 0.20860 -0.15770 -0.03930
H3J H 0.03590 -0.22280 0.21030
H3K H -0.21030 0.03590 0.22280
H3I H -0.22280 -0.21030 -0.03590
H3F H -0.22280 0.21030 0.03590
H3G H 0.03590 0.22280 -0.21030
H3H H -0.21030 -0.03590 -0.22280
H3D H -0.03590 -0.22280 -0.21030
H3E H 0.21030 0.03590 -0.22280
H3A H -0.03590 0.22280 0.21030
H3B H 0.21030 -0.03590 0.22280
H3C H 0.22280 -0.21030 0.03590
H4J H 0.08210 -0.19770 0.16000
H4K H -0.16000 0.08210 0.19770
H4I H -0.19770 -0.16000 -0.08210
H4F H -0.19770 0.16000 0.08210
H4G H 0.08210 0.19770 -0.16000
H4H H -0.16000 -0.08210 -0.19770
H4D H -0.08210 -0.19770 -0.16000
H4E H 0.16000 0.08210 -0.19770
H4A H -0.08210 0.19770 0.16000
H4B H 0.16000 -0.08210 0.19770
H4C H 0.19770 -0.16000 0.08210
H5J H 0.03060 -0.31340 0.16750
H5K H -0.16750 0.03060 0.31340
H5I H -0.31340 -0.16750 -0.03060
H5F H -0.31340 0.16750 0.03060
H5G H 0.03060 0.31340 -0.16750
H5H H -0.16750 -0.03060 -0.31340
H5D H -0.03060 -0.31340 -0.16750
H5E H 0.16750 0.03060 -0.31340
H5A H -0.03060 0.31340 0.16750
H5B H 0.16750 -0.03060 0.31340
H5C H 0.31340 -0.16750 0.03060
H6J H 0.10010 -0.29600 0.15460
H6K H -0.15460 0.10010 0.29600
H6I H -0.29600 -0.15460 -0.10010
H6F H -0.29600 0.15460 0.10010
H6G H 0.10010 0.29600 -0.15460
H6H H -0.15460 -0.10010 -0.29600
H6D H -0.10010 -0.29600 -0.15460
H6E H 0.15460 0.10010 -0.29600
H6A H -0.10010 0.29600 0.15460
H6B H 0.15460 -0.10010 0.29600
H6C H 0.29600 -0.15460 0.10010
H7J H 0.03240 -0.32340 0.06450
H7K H -0.06450 0.03240 0.32340
H7I H -0.32340 -0.06450 -0.03240
H7F H -0.32340 0.06450 0.03240
H7G H 0.03240 0.32340 -0.06450
H7H H -0.06450 -0.03240 -0.32340
H7D H -0.03240 -0.32340 -0.06450
H7E H 0.06450 0.03240 -0.32340
H7A H -0.03240 0.32340 0.06450
H7B H 0.06450 -0.03240 0.32340
H7C H 0.32340 -0.06450 0.03240
H8J H 0.08050 -0.26930 0.05650
H8K H -0.05650 0.08050 0.26930
H8I H -0.26930 -0.05650 -0.08050
H8F H -0.26930 0.05650 0.08050
H8G H 0.08050 0.26930 -0.05650
H8H H -0.05650 -0.08050 -0.26930
H8D H -0.08050 -0.26930 -0.05650
H8E H 0.05650 0.08050 -0.26930
H8A H -0.08050 0.26930 0.05650
H8B H 0.05650 -0.08050 0.26930
H8C H 0.26930 -0.05650 0.08050
#END

data_CSD_CIF_RUHJEK
_audit_creation_date 2010-03-10
_audit_creation_method CSD-ConQuest-V1
_database_code_CSD RUHJEK
_database_code_depnum_ccdc_archive 'CCDC 258967'
_chemical_formula_sum 'C60 H96 Ba1 Cl4 Co6 N12 O40'
_chemical_formula_moiety
;
C60 H96 Ba1 Co6 N12 O24 4+,4(Cl1 O4 1-)
;
_journal_coden_Cambridge 241
_journal_volume 34
_journal_year 2005
_journal_page_first 300
_journal_name_full 'Chem.Lett. '
loop_
_publ_author_name
"T.Komiyama"
"S.Igarashi"
"Y.Hoshino"
"Y.Yukawa"
_chemical_name_systematic
;
dodecakis(\m~3~-L-Prolinato-N,O,O,O')-barium(ii)-tetra-cobalt(ii)-di-cobalt(ii
i) tetraperchlorate
;
_cell_volume   9789.632
_exptl_crystal_colour 'dark brown'
_exptl_crystal_density_diffrn 1.532
_exptl_crystal_description 'tetrahedral'
_exptl_crystal_preparation 'acetonitrile/diethyl ether'
_diffrn_ambient_temperature 296.2
#These two values have been output from a single CSD field.
_refine_ls_R_factor_gt 0.0468
_refine_ls_wR_factor_gt 0.0468
_symmetry_cell_setting cubic
_symmetry_space_group_name_H-M 'F 2 3'
_symmetry_Int_Tables_number 196
loop_
_symmetry_equiv_pos_site_id
_symmetry_equiv_pos_as_xyz
1 x,y,z
2 z,x,y
3 y,z,x
4 x,-y,-z
5 z,-x,-y
6 y,-z,-x
7 -x,y,-z
8 -z,x,-y
9 -y,z,-x
10 -x,-y,z
11 -z,-x,y
12 -y,-z,x
13 x,1/2+y,1/2+z
14 z,1/2+x,1/2+y
15 y,1/2+z,1/2+x
16 x,1/2-y,1/2-z
17 z,1/2-x,1/2-y
18 y,1/2-z,1/2-x
19 -x,1/2+y,1/2-z
20 -z,1/2+x,1/2-y
21 -y,1/2+z,1/2-x
22 -x,1/2-y,1/2+z
23 -z,1/2-x,1/2+y
24 -y,1/2-z,1/2+x
25 1/2+x,y,1/2+z
26 1/2+z,x,1/2+y
27 1/2+y,z,1/2+x
28 1/2+x,-y,1/2-z
29 1/2+z,-x,1/2-y
30 1/2+y,-z,1/2-x
31 1/2-x,y,1/2-z
32 1/2-z,x,1/2-y
33 1/2-y,z,1/2-x
34 1/2-x,-y,1/2+z
35 1/2-z,-x,1/2+y
36 1/2-y,-z,1/2+x
37 1/2+x,1/2+y,z
38 1/2+z,1/2+x,y
39 1/2+y,1/2+z,x
40 1/2+x,1/2-y,-z
41 1/2+z,1/2-x,-y
42 1/2+y,1/2-z,-x
43 1/2-x,1/2+y,-z
44 1/2-z,1/2+x,-y
45 1/2-y,1/2+z,-x
46 1/2-x,1/2-y,z
47 1/2-z,1/2-x,y
48 1/2-y,1/2-z,x
_cell_length_a 21.3922(5)
_cell_length_b 21.3922(5)
_cell_length_c 21.3922(5)
_cell_angle_alpha 90
_cell_angle_beta 90
_cell_angle_gamma 90
_cell_formula_units_Z 4
loop_
_atom_type_symbol
_atom_type_radius_bond
C 0.68
H 0.23
Ba 2.07
Cl 0.99
Co 1.26
N 0.68
O 0.68
loop_
_atom_site_label
_atom_site_type_symbol
_atom_site_fract_x
_atom_site_fract_y
_atom_site_fract_z
Ba1 Ba 0.00000 0.00000 0.00000
Co1 Co 0.17471(6) 0.00000 0.00000
O1 O 0.1111(2) 0.0699(2) 0.0010(6)
O2 O 0.1733(3) 0.0012(2) 0.0964(6)
N1 N 0.2357(3) 0.0758(4) 0.0055(8)
C1 C 0.1308(4) 0.1250(4) -0.002(1)
C2 C 0.2003(4) 0.1346(5) 0.001(1)
C3 C 0.223(1) 0.169(1) -0.051(2)
C4 C 0.285(1) 0.146(1) -0.061(1)
C5 C 0.2822(7) 0.0805(9) -0.0475(10)
H1 H 0.25800 0.07320 0.04420
H2 H 0.21060 0.16100 0.03850
H3 H 0.19770 0.15340 -0.09190
H4 H 0.22000 0.21130 -0.05420
H5 H 0.29880 0.15320 -0.10770
H6 H 0.31270 0.17040 -0.03860
H7 H 0.32300 0.06590 -0.03500
H8 H 0.26930 0.05570 -0.08270
Cl1 Cl 0.37610 0.37610 0.37610
O3 O 0.31720 0.41740 0.37390
O4 O 0.41680 0.41680 0.41680
Cl2 Cl -0.25000 -0.25000 -0.25000
O5 O -0.21150 -0.21150 -0.21150
Co1A Co 0.00000(6) 0.17471 0.00000
Co1B Co 0.00000(6) 0.00000 0.17471
Co1D Co 0.00000(6) -0.17471 0.00000
Co1E Co 0.00000(6) 0.00000 -0.17471
Co1F Co -0.17471(6) 0.00000 0.00000
O1C O 0.1111(2) -0.0699(2) -0.0010(6)
O1A O 0.0010(2) 0.1111(2) 0.0699(6)
O1G O -0.0010(2) 0.1111(2) -0.0699(6)
O1B O 0.0699(2) 0.0010(2) 0.1111(6)
O1K O -0.0699(2) -0.0010(2) 0.1111(6)
O1D O 0.0010(2) -0.1111(2) -0.0699(6)
O1J O -0.0010(2) -0.1111(2) 0.0699(6)
O1E O 0.0699(2) -0.0010(2) -0.1111(6)
O1H O -0.0699(2) 0.0010(2) -0.1111(6)
O1F O -0.1111(2) 0.0699(2) -0.0010(6)
O1I O -0.1111(2) -0.0699(2) 0.0010(6)
O2J O -0.0964(3) -0.1733(2) 0.0012(6)
O2D O 0.0964(3) -0.1733(2) -0.0012(6)
O2B O 0.0012(3) 0.0964(2) 0.1733(6)
O2A O 0.0964(3) 0.1733(2) 0.0012(6)
O2C O 0.1733(3) -0.0012(2) -0.0964(6)
O2E O 0.0012(3) -0.0964(2) -0.1733(6)
O2K O -0.0012(3) -0.0964(2) 0.1733(6)
O2I O -0.1733(3) -0.0012(2) 0.0964(6)
O2F O -0.1733(3) 0.0012(2) -0.0964(6)
O2H O -0.0012(3) 0.0964(2) -0.1733(6)
O2G O -0.0964(3) 0.1733(2) -0.0012(6)
N1C N 0.2357(3) -0.0758(4) -0.0055(8)
N1B N 0.0758(3) 0.0055(4) 0.2357(8)
N1A N 0.0055(3) 0.2357(4) 0.0758(8)
N1E N 0.0758(3) -0.0055(4) -0.2357(8)
N1D N 0.0055(3) -0.2357(4) -0.0758(8)
N1J N -0.0055(3) -0.2357(4) 0.0758(8)
N1K N -0.0758(3) -0.0055(4) 0.2357(8)
N1H N -0.0758(3) 0.0055(4) -0.2357(8)
N1G N -0.0055(3) 0.2357(4) -0.0758(8)
N1F N -0.2357(3) 0.0758(4) -0.0055(8)
N1I N -0.2357(3) -0.0758(4) 0.0055(8)
C1I C -0.1308(4) -0.1250(4) -0.002(1)
C1C C 0.1308(4) -0.1250(4) 0.002(1)
C1B C 0.1250(4) -0.0020(4) 0.1308(10)
C1A C -0.0020(4) 0.1308(4) 0.125(1)
C1E C 0.1250(4) 0.0020(4) -0.1308(10)
C1D C -0.0020(4) -0.1308(4) -0.125(1)
C1J C 0.0020(4) -0.1308(4) 0.125(1)
C1K C -0.1250(4) 0.0020(4) 0.1308(10)
C1H C -0.1250(4) -0.0020(4) -0.1308(10)
C1G C 0.0020(4) 0.1308(4) -0.125(1)
C1F C -0.1308(4) 0.1250(4) 0.002(1)
C2C C 0.2003(4) -0.1346(5) -0.001(1)
C2B C 0.1346(4) 0.0010(5) 0.2003(10)
C2A C 0.0010(4) 0.2003(5) 0.1346(10)
C2E C 0.1346(4) -0.0010(5) -0.2003(10)
C2D C 0.0010(4) -0.2003(5) -0.1346(10)
C2J C -0.0010(4) -0.2003(5) 0.1346(10)
C2K C -0.1346(4) -0.0010(5) 0.2003(10)
C2H C -0.1346(4) 0.0010(5) -0.2003(10)
C2G C -0.0010(4) 0.2003(5) -0.1346(10)
C2F C -0.2003(4) 0.1346(5) -0.001(1)
C2I C -0.2003(4) -0.1346(5) 0.001(1)
C3I C -0.223(1) -0.169(1) -0.051(2)
C3F C -0.223(1) 0.169(1) 0.051(2)
C3G C 0.051(1) 0.223(1) -0.169(2)
C3H C -0.169(1) -0.051(1) -0.223(2)
C3K C -0.169(1) 0.051(1) 0.223(2)
C3J C 0.051(1) -0.223(1) 0.169(2)
C3D C -0.051(1) -0.223(1) -0.169(2)
C3E C 0.169(1) 0.051(1) -0.223(2)
C3A C -0.051(1) 0.223(1) 0.169(2)
C3B C 0.169(1) -0.051(1) 0.223(2)
C3C C 0.223(1) -0.169(1) 0.051(2)
C4I C -0.285(1) -0.146(1) -0.061(1)
C4F C -0.285(1) 0.146(1) 0.061(1)
C4G C 0.061(1) 0.285(1) -0.146(1)
C4H C -0.146(1) -0.061(1) -0.285(1)
C4K C -0.146(1) 0.061(1) 0.285(1)
C4J C 0.061(1) -0.285(1) 0.146(1)
C4D C -0.061(1) -0.285(1) -0.146(1)
C4E C 0.146(1) 0.061(1) -0.285(1)
C4A C -0.061(1) 0.285(1) 0.146(1)
C4B C 0.146(1) -0.061(1) 0.285(1)
C4C C 0.285(1) -0.146(1) 0.061(1)
C5I C -0.2822(7) -0.0805(9) -0.0475(10)
C5F C -0.2822(7) 0.0805(9) 0.0475(10)
C5G C 0.0475(7) 0.2822(9) -0.0805(10)
C5H C -0.0805(7) -0.0475(9) -0.2822(10)
C5K C -0.0805(7) 0.0475(9) 0.2822(10)
C5J C 0.0475(7) -0.2822(9) 0.0805(10)
C5D C -0.0475(7) -0.2822(9) -0.0805(10)
C5E C 0.0805(7) 0.0475(9) -0.2822(10)
C5A C -0.0475(7) 0.2822(9) 0.0805(10)
C5B C 0.0805(7) -0.0475(9) 0.2822(10)
C5C C 0.2822(7) -0.0805(9) 0.0475(10)
H1I H -0.25800 -0.07320 0.04420
H1F H -0.25800 0.07320 -0.04420
H1G H -0.04420 0.25800 -0.07320
H1H H -0.07320 0.04420 -0.25800
H1K H -0.07320 -0.04420 0.25800
H1J H -0.04420 -0.25800 0.07320
H1D H 0.04420 -0.25800 -0.07320
H1E H 0.07320 -0.04420 -0.25800
H1A H 0.04420 0.25800 0.07320
H1B H 0.07320 0.04420 0.25800
H1C H 0.25800 -0.07320 -0.04420
H2I H -0.21060 -0.16100 0.03850
H2F H -0.21060 0.16100 -0.03850
H2G H -0.03850 0.21060 -0.16100
H2H H -0.16100 0.03850 -0.21060
H2K H -0.16100 -0.03850 0.21060
H2J H -0.03850 -0.21060 0.16100
H2D H 0.03850 -0.21060 -0.16100
H2E H 0.16100 -0.03850 -0.21060
H2A H 0.03850 0.21060 0.16100
H2B H 0.16100 0.03850 0.21060
H2C H 0.21060 -0.16100 -0.03850
H3I H -0.19770 -0.15340 -0.09190
H3F H -0.19770 0.15340 0.09190
H3G H 0.09190 0.19770 -0.15340
H3H H -0.15340 -0.09190 -0.19770
H3K H -0.15340 0.09190 0.19770
H3J H 0.09190 -0.19770 0.15340
H3D H -0.09190 -0.19770 -0.15340
H3E H 0.15340 0.09190 -0.19770
H3A H -0.09190 0.19770 0.15340
H3B H 0.15340 -0.09190 0.19770
H3C H 0.19770 -0.15340 0.09190
H4I H -0.22000 -0.21130 -0.05420
H4F H -0.22000 0.21130 0.05420
H4G H 0.05420 0.22000 -0.21130
H4H H -0.21130 -0.05420 -0.22000
H4K H -0.21130 0.05420 0.22000
H4J H 0.05420 -0.22000 0.21130
H4D H -0.05420 -0.22000 -0.21130
H4E H 0.21130 0.05420 -0.22000
H4A H -0.05420 0.22000 0.21130
H4B H 0.21130 -0.05420 0.22000
H4C H 0.22000 -0.21130 0.05420
H5I H -0.29880 -0.15320 -0.10770
H5F H -0.29880 0.15320 0.10770
H5G H 0.10770 0.29880 -0.15320
H5H H -0.15320 -0.10770 -0.29880
H5K H -0.15320 0.10770 0.29880
H5J H 0.10770 -0.29880 0.15320
H5D H -0.10770 -0.29880 -0.15320
H5E H 0.15320 0.10770 -0.29880
H5A H -0.10770 0.29880 0.15320
H5B H 0.15320 -0.10770 0.29880
H5C H 0.29880 -0.15320 0.10770
H6I H -0.31270 -0.17040 -0.03860
H6F H -0.31270 0.17040 0.03860
H6G H 0.03860 0.31270 -0.17040
H6H H -0.17040 -0.03860 -0.31270
H6K H -0.17040 0.03860 0.31270
H6J H 0.03860 -0.31270 0.17040
H6D H -0.03860 -0.31270 -0.17040
H6E H 0.17040 0.03860 -0.31270
H6A H -0.03860 0.31270 0.17040
H6B H 0.17040 -0.03860 0.31270
H6C H 0.31270 -0.17040 0.03860
H7I H -0.32300 -0.06590 -0.03500
H7F H -0.32300 0.06590 0.03500
H7G H 0.03500 0.32300 -0.06590
H7H H -0.06590 -0.03500 -0.32300
H7K H -0.06590 0.03500 0.32300
H7J H 0.03500 -0.32300 0.06590
H7D H -0.03500 -0.32300 -0.06590
H7E H 0.06590 0.03500 -0.32300
H7A H -0.03500 0.32300 0.06590
H7B H 0.06590 -0.03500 0.32300
H7C H 0.32300 -0.06590 0.03500
H8I H -0.26930 -0.05570 -0.08270
H8F H -0.26930 0.05570 0.08270
H8G H 0.08270 0.26930 -0.05570
H8H H -0.05570 -0.08270 -0.26930
H8K H -0.05570 0.08270 0.26930
H8J H 0.08270 -0.26930 0.05570
H8D H -0.08270 -0.26930 -0.05570
H8E H 0.05570 0.08270 -0.26930
H8A H -0.08270 0.26930 0.05570
H8B H 0.05570 -0.08270 0.26930
H8C H 0.26930 -0.05570 0.08270
O3A O 0.37390 0.31720 0.41740
O3B O 0.41740 0.37390 0.31720
O5O O -0.21150 -0.28850 -0.28850
O5DA O -0.28850 -0.21150 -0.28850
O5SA O -0.28850 -0.28850 -0.21150
#END

data_CSD_CIF_RUHJIO
_audit_creation_date 2010-03-10
_audit_creation_method CSD-ConQuest-V1
_database_code_CSD RUHJIO
_database_code_depnum_ccdc_archive 'CCDC 258968'
_chemical_formula_sum 'C60 H96 Cl4 Co6 La1 N12 O40'
_chemical_formula_moiety
;
C60 H96 Co6 La1 N12 O24 4+,4(Cl1 O4 1-)
;
_journal_coden_Cambridge 241
_journal_volume 34
_journal_year 2005
_journal_page_first 300
_journal_name_full 'Chem.Lett. '
loop_
_publ_author_name
"T.Komiyama"
"S.Igarashi"
"Y.Hoshino"
"Y.Yukawa"
_chemical_name_systematic
;
dodecakis(\m~3~-L-Prolinato-N,O,O,O')-penta-cobalt(ii)-cobalt(iii)-lanthanum(i
ii) tetraperchlorate
;
_cell_volume   9716.366
_exptl_crystal_colour 'brown'
_exptl_crystal_density_diffrn 1.545
_exptl_crystal_description 'tetrahedron'
_exptl_crystal_preparation 'acetonitrile/diethyl ether'
_diffrn_ambient_temperature 296.2
#These two values have been output from a single CSD field.
_refine_ls_R_factor_gt 0.0494
_refine_ls_wR_factor_gt 0.0494
_symmetry_cell_setting cubic
_symmetry_space_group_name_H-M 'F 2 3'
_symmetry_Int_Tables_number 196
loop_
_symmetry_equiv_pos_site_id
_symmetry_equiv_pos_as_xyz
1 x,y,z
2 z,x,y
3 y,z,x
4 x,-y,-z
5 z,-x,-y
6 y,-z,-x
7 -x,y,-z
8 -z,x,-y
9 -y,z,-x
10 -x,-y,z
11 -z,-x,y
12 -y,-z,x
13 x,1/2+y,1/2+z
14 z,1/2+x,1/2+y
15 y,1/2+z,1/2+x
16 x,1/2-y,1/2-z
17 z,1/2-x,1/2-y
18 y,1/2-z,1/2-x
19 -x,1/2+y,1/2-z
20 -z,1/2+x,1/2-y
21 -y,1/2+z,1/2-x
22 -x,1/2-y,1/2+z
23 -z,1/2-x,1/2+y
24 -y,1/2-z,1/2+x
25 1/2+x,y,1/2+z
26 1/2+z,x,1/2+y
27 1/2+y,z,1/2+x
28 1/2+x,-y,1/2-z
29 1/2+z,-x,1/2-y
30 1/2+y,-z,1/2-x
31 1/2-x,y,1/2-z
32 1/2-z,x,1/2-y
33 1/2-y,z,1/2-x
34 1/2-x,-y,1/2+z
35 1/2-z,-x,1/2+y
36 1/2-y,-z,1/2+x
37 1/2+x,1/2+y,z
38 1/2+z,1/2+x,y
39 1/2+y,1/2+z,x
40 1/2+x,1/2-y,-z
41 1/2+z,1/2-x,-y
42 1/2+y,1/2-z,-x
43 1/2-x,1/2+y,-z
44 1/2-z,1/2+x,-y
45 1/2-y,1/2+z,-x
46 1/2-x,1/2-y,z
47 1/2-z,1/2-x,y
48 1/2-y,1/2-z,x
_cell_length_a 21.3387(5)
_cell_length_b 21.3387(5)
_cell_length_c 21.3387(5)
_cell_angle_alpha 90
_cell_angle_beta 90
_cell_angle_gamma 90
_cell_formula_units_Z 4
loop_
_atom_type_symbol
_atom_type_radius_bond
C 0.68
H 0.23
Cl 0.99
Co 1.26
La 2.07
N 0.68
O 0.68
loop_
_atom_site_label
_atom_site_type_symbol
_atom_site_fract_x
_atom_site_fract_y
_atom_site_fract_z
La1 La 0.00000 0.00000 0.00000
Co1 Co 0.17555(4) 0.00000 0.00000
O1 O 0.1078(1) 0.0686(2) -0.0001(4)
O2 O 0.1725(2) 0.0023(2) 0.0956(4)
N1 N 0.2362(2) 0.0762(3) 0.0044(6)
C1 C 0.1285(2) 0.1240(2) 0.0025(5)
C2 C 0.1986(3) 0.1340(3) 0.0026(8)
C3 C 0.2214(7) 0.1680(8) -0.052(1)
C4 C 0.2868(7) 0.1486(7) -0.063(1)
C5 C 0.2828(6) 0.0827(6) -0.0450(7)
H1 H 0.25760 0.07430 0.04450
H2 H 0.21000 0.16170 0.03690
H3 H 0.19710 0.14290 -0.09560
H4 H 0.21050 0.20680 -0.06370
H5 H 0.30770 0.15420 -0.10170
H6 H 0.31130 0.17140 -0.03120
H7 H 0.32180 0.06480 -0.03120
H8 H 0.26890 0.05740 -0.08050
Cl1 Cl 0.37490 0.37490 0.37490
O3 O 0.37590 0.31870 0.41040
O4 O 0.41100 0.41100 0.41100
Cl2 Cl -0.25000 -0.25000 -0.25000
O5 O -0.21160 -0.21160 -0.21160
Co1A Co 0.00000(4) 0.17555 0.00000
Co1B Co 0.00000(4) 0.00000 0.17555
Co1D Co 0.00000(4) -0.17555 0.00000
Co1E Co 0.00000(4) 0.00000 -0.17555
Co1F Co -0.17555(4) 0.00000 0.00000
O1C O 0.1078(1) -0.0686(2) 0.0001(4)
O1A O -0.0001(1) 0.1078(2) 0.0686(4)
O1G O 0.0001(1) 0.1078(2) -0.0686(4)
O1B O 0.0686(1) -0.0001(2) 0.1078(4)
O1K O -0.0686(1) 0.0001(2) 0.1078(4)
O1D O -0.0001(1) -0.1078(2) -0.0686(4)
O1J O 0.0001(1) -0.1078(2) 0.0686(4)
O1E O 0.0686(1) 0.0001(2) -0.1078(4)
O1H O -0.0686(1) -0.0001(2) -0.1078(4)
O1F O -0.1078(1) 0.0686(2) 0.0001(4)
O1I O -0.1078(1) -0.0686(2) -0.0001(4)
O2J O -0.0956(2) -0.1725(2) 0.0023(4)
O2D O 0.0956(2) -0.1725(2) -0.0023(4)
O2B O 0.0023(2) 0.0956(2) 0.1725(4)
O2A O 0.0956(2) 0.1725(2) 0.0023(4)
O2C O 0.1725(2) -0.0023(2) -0.0956(4)
O2E O 0.0023(2) -0.0956(2) -0.1725(4)
O2K O -0.0023(2) -0.0956(2) 0.1725(4)
O2I O -0.1725(2) -0.0023(2) 0.0956(4)
O2F O -0.1725(2) 0.0023(2) -0.0956(4)
O2H O -0.0023(2) 0.0956(2) -0.1725(4)
O2G O -0.0956(2) 0.1725(2) -0.0023(4)
N1C N 0.2362(2) -0.0762(3) -0.0044(6)
N1B N 0.0762(2) 0.0044(3) 0.2362(6)
N1A N 0.0044(2) 0.2362(3) 0.0762(6)
N1E N 0.0762(2) -0.0044(3) -0.2362(6)
N1D N 0.0044(2) -0.2362(3) -0.0762(6)
N1J N -0.0044(2) -0.2362(3) 0.0762(6)
N1K N -0.0762(2) -0.0044(3) 0.2362(6)
N1H N -0.0762(2) 0.0044(3) -0.2362(6)
N1G N -0.0044(2) 0.2362(3) -0.0762(6)
N1F N -0.2362(2) 0.0762(3) -0.0044(6)
N1I N -0.2362(2) -0.0762(3) 0.0044(6)
C1I C -0.1285(2) -0.1240(2) 0.0025(5)
C1C C 0.1285(2) -0.1240(2) -0.0025(5)
C1B C 0.1240(2) 0.0025(2) 0.1285(5)
C1A C 0.0025(2) 0.1285(2) 0.1240(5)
C1E C 0.1240(2) -0.0025(2) -0.1285(5)
C1D C 0.0025(2) -0.1285(2) -0.1240(5)
C1J C -0.0025(2) -0.1285(2) 0.1240(5)
C1K C -0.1240(2) -0.0025(2) 0.1285(5)
C1H C -0.1240(2) 0.0025(2) -0.1285(5)
C1G C -0.0025(2) 0.1285(2) -0.1240(5)
C1F C -0.1285(2) 0.1240(2) -0.0025(5)
C2C C 0.1986(3) -0.1340(3) -0.0026(8)
C2B C 0.1340(3) 0.0026(3) 0.1986(8)
C2A C 0.0026(3) 0.1986(3) 0.1340(8)
C2E C 0.1340(3) -0.0026(3) -0.1986(8)
C2D C 0.0026(3) -0.1986(3) -0.1340(8)
C2J C -0.0026(3) -0.1986(3) 0.1340(8)
C2K C -0.1340(3) -0.0026(3) 0.1986(8)
C2H C -0.1340(3) 0.0026(3) -0.1986(8)
C2G C -0.0026(3) 0.1986(3) -0.1340(8)
C2F C -0.1986(3) 0.1340(3) -0.0026(8)
C2I C -0.1986(3) -0.1340(3) 0.0026(8)
C3I C -0.2214(7) -0.1680(8) -0.052(1)
C3F C -0.2214(7) 0.1680(8) 0.052(1)
C3G C 0.0520(7) 0.2214(8) -0.168(1)
C3H C -0.1680(7) -0.0520(8) -0.2214(10)
C3K C -0.1680(7) 0.0520(8) 0.2214(10)
C3J C 0.0520(7) -0.2214(8) 0.168(1)
C3D C -0.0520(7) -0.2214(8) -0.168(1)
C3E C 0.1680(7) 0.0520(8) -0.2214(10)
C3A C -0.0520(7) 0.2214(8) 0.168(1)
C3B C 0.1680(7) -0.0520(8) 0.2214(10)
C3C C 0.2214(7) -0.1680(8) 0.052(1)
C4I C -0.2868(7) -0.1486(7) -0.063(1)
C4F C -0.2868(7) 0.1486(7) 0.063(1)
C4G C 0.0630(7) 0.2868(7) -0.1486(10)
C4H C -0.1486(7) -0.0630(7) -0.2868(10)
C4K C -0.1486(7) 0.0630(7) 0.2868(10)
C4J C 0.0630(7) -0.2868(7) 0.1486(10)
C4D C -0.0630(7) -0.2868(7) -0.1486(10)
C4E C 0.1486(7) 0.0630(7) -0.2868(10)
C4A C -0.0630(7) 0.2868(7) 0.1486(10)
C4B C 0.1486(7) -0.0630(7) 0.2868(10)
C4C C 0.2868(7) -0.1486(7) 0.063(1)
C5I C -0.2828(6) -0.0827(6) -0.0450(7)
C5F C -0.2828(6) 0.0827(6) 0.0450(7)
C5G C 0.0450(6) 0.2828(6) -0.0827(7)
C5H C -0.0827(6) -0.0450(6) -0.2828(7)
C5K C -0.0827(6) 0.0450(6) 0.2828(7)
C5J C 0.0450(6) -0.2828(6) 0.0827(7)
C5D C -0.0450(6) -0.2828(6) -0.0827(7)
C5E C 0.0827(6) 0.0450(6) -0.2828(7)
C5A C -0.0450(6) 0.2828(6) 0.0827(7)
C5B C 0.0827(6) -0.0450(6) 0.2828(7)
C5C C 0.2828(6) -0.0827(6) 0.0450(7)
H1I H -0.25760 -0.07430 0.04450
H1F H -0.25760 0.07430 -0.04450
H1G H -0.04450 0.25760 -0.07430
H1H H -0.07430 0.04450 -0.25760
H1K H -0.07430 -0.04450 0.25760
H1J H -0.04450 -0.25760 0.07430
H1D H 0.04450 -0.25760 -0.07430
H1E H 0.07430 -0.04450 -0.25760
H1A H 0.04450 0.25760 0.07430
H1B H 0.07430 0.04450 0.25760
H1C H 0.25760 -0.07430 -0.04450
H2I H -0.21000 -0.16170 0.03690
H2F H -0.21000 0.16170 -0.03690
H2G H -0.03690 0.21000 -0.16170
H2H H -0.16170 0.03690 -0.21000
H2K H -0.16170 -0.03690 0.21000
H2J H -0.03690 -0.21000 0.16170
H2D H 0.03690 -0.21000 -0.16170
H2E H 0.16170 -0.03690 -0.21000
H2A H 0.03690 0.21000 0.16170
H2B H 0.16170 0.03690 0.21000
H2C H 0.21000 -0.16170 -0.03690
H3I H -0.19710 -0.14290 -0.09560
H3F H -0.19710 0.14290 0.09560
H3G H 0.09560 0.19710 -0.14290
H3H H -0.14290 -0.09560 -0.19710
H3K H -0.14290 0.09560 0.19710
H3J H 0.09560 -0.19710 0.14290
H3D H -0.09560 -0.19710 -0.14290
H3E H 0.14290 0.09560 -0.19710
H3A H -0.09560 0.19710 0.14290
H3B H 0.14290 -0.09560 0.19710
H3C H 0.19710 -0.14290 0.09560
H4I H -0.21050 -0.20680 -0.06370
H4F H -0.21050 0.20680 0.06370
H4G H 0.06370 0.21050 -0.20680
H4H H -0.20680 -0.06370 -0.21050
H4K H -0.20680 0.06370 0.21050
H4J H 0.06370 -0.21050 0.20680
H4D H -0.06370 -0.21050 -0.20680
H4E H 0.20680 0.06370 -0.21050
H4A H -0.06370 0.21050 0.20680
H4B H 0.20680 -0.06370 0.21050
H4C H 0.21050 -0.20680 0.06370
H5I H -0.30770 -0.15420 -0.10170
H5F H -0.30770 0.15420 0.10170
H5G H 0.10170 0.30770 -0.15420
H5H H -0.15420 -0.10170 -0.30770
H5K H -0.15420 0.10170 0.30770
H5J H 0.10170 -0.30770 0.15420
H5D H -0.10170 -0.30770 -0.15420
H5E H 0.15420 0.10170 -0.30770
H5A H -0.10170 0.30770 0.15420
H5B H 0.15420 -0.10170 0.30770
H5C H 0.30770 -0.15420 0.10170
H6I H -0.31130 -0.17140 -0.03120
H6F H -0.31130 0.17140 0.03120
H6G H 0.03120 0.31130 -0.17140
H6H H -0.17140 -0.03120 -0.31130
H6K H -0.17140 0.03120 0.31130
H6J H 0.03120 -0.31130 0.17140
H6D H -0.03120 -0.31130 -0.17140
H6E H 0.17140 0.03120 -0.31130
H6A H -0.03120 0.31130 0.17140
H6B H 0.17140 -0.03120 0.31130
H6C H 0.31130 -0.17140 0.03120
H7I H -0.32180 -0.06480 -0.03120
H7F H -0.32180 0.06480 0.03120
H7G H 0.03120 0.32180 -0.06480
H7H H -0.06480 -0.03120 -0.32180
H7K H -0.06480 0.03120 0.32180
H7J H 0.03120 -0.32180 0.06480
H7D H -0.03120 -0.32180 -0.06480
H7E H 0.06480 0.03120 -0.32180
H7A H -0.03120 0.32180 0.06480
H7B H 0.06480 -0.03120 0.32180
H7C H 0.32180 -0.06480 0.03120
H8I H -0.26890 -0.05740 -0.08050
H8F H -0.26890 0.05740 0.08050
H8G H 0.08050 0.26890 -0.05740
H8H H -0.05740 -0.08050 -0.26890
H8K H -0.05740 0.08050 0.26890
H8J H 0.08050 -0.26890 0.05740
H8D H -0.08050 -0.26890 -0.05740
H8E H 0.05740 0.08050 -0.26890
H8A H -0.08050 0.26890 0.05740
H8B H 0.05740 -0.08050 0.26890
H8C H 0.26890 -0.05740 0.08050
O3A O 0.41040 0.37590 0.31870
O3B O 0.31870 0.41040 0.37590
O5O O -0.21160 -0.28840 -0.28840
O5DA O -0.28840 -0.21160 -0.28840
O5SA O -0.28840 -0.28840 -0.21160
#END

data_CSD_CIF_RUHJOU
_audit_creation_date 2010-03-10
_audit_creation_method CSD-ConQuest-V1
_database_code_CSD RUHJOU
_database_code_depnum_ccdc_archive 'CCDC 258969'
_chemical_formula_sum 'C68 H120 Ba1 Cl4 Co6 N14 O40'
_chemical_formula_moiety
;
2(C4 H12 N1 1+),C60 H96 Ba1 Co6 N12 O24 2+,4(Cl1 O4 1-)
;
_journal_coden_Cambridge 241
_journal_volume 34
_journal_year 2005
_journal_page_first 300
_journal_name_full 'Chem.Lett. '
loop_
_publ_author_name
"T.Komiyama"
"S.Igarashi"
"Y.Hoshino"
"Y.Yukawa"
_chemical_name_systematic
;
bis(Tetramethylammonium) 
dodecakis(\m~3~-L-prolinato-N,O,O,O')-barium(ii)-hexa-cobalt(ii) 
tetraperchlorate
;
_cell_volume  10201.935
_exptl_crystal_colour 'pale pink'
_exptl_crystal_density_diffrn 1.567
_exptl_crystal_description 'tetrahedral'
_diffrn_ambient_temperature 296.2
#These two values have been output from a single CSD field.
_refine_ls_R_factor_gt 0.045
_refine_ls_wR_factor_gt 0.045
_symmetry_cell_setting cubic
_symmetry_space_group_name_H-M 'F 2 3'
_symmetry_Int_Tables_number 196
loop_
_symmetry_equiv_pos_site_id
_symmetry_equiv_pos_as_xyz
1 x,y,z
2 z,x,y
3 y,z,x
4 x,-y,-z
5 z,-x,-y
6 y,-z,-x
7 -x,y,-z
8 -z,x,-y
9 -y,z,-x
10 -x,-y,z
11 -z,-x,y
12 -y,-z,x
13 x,1/2+y,1/2+z
14 z,1/2+x,1/2+y
15 y,1/2+z,1/2+x
16 x,1/2-y,1/2-z
17 z,1/2-x,1/2-y
18 y,1/2-z,1/2-x
19 -x,1/2+y,1/2-z
20 -z,1/2+x,1/2-y
21 -y,1/2+z,1/2-x
22 -x,1/2-y,1/2+z
23 -z,1/2-x,1/2+y
24 -y,1/2-z,1/2+x
25 1/2+x,y,1/2+z
26 1/2+z,x,1/2+y
27 1/2+y,z,1/2+x
28 1/2+x,-y,1/2-z
29 1/2+z,-x,1/2-y
30 1/2+y,-z,1/2-x
31 1/2-x,y,1/2-z
32 1/2-z,x,1/2-y
33 1/2-y,z,1/2-x
34 1/2-x,-y,1/2+z
35 1/2-z,-x,1/2+y
36 1/2-y,-z,1/2+x
37 1/2+x,1/2+y,z
38 1/2+z,1/2+x,y
39 1/2+y,1/2+z,x
40 1/2+x,1/2-y,-z
41 1/2+z,1/2-x,-y
42 1/2+y,1/2-z,-x
43 1/2-x,1/2+y,-z
44 1/2-z,1/2+x,-y
45 1/2-y,1/2+z,-x
46 1/2-x,1/2-y,z
47 1/2-z,1/2-x,y
48 1/2-y,1/2-z,x
_cell_length_a 21.6884(4)
_cell_length_b 21.6884(4)
_cell_length_c 21.6884(4)
_cell_angle_alpha 90
_cell_angle_beta 90
_cell_angle_gamma 90
_cell_formula_units_Z 4
loop_
_atom_type_symbol
_atom_type_radius_bond
C 0.68
H 0.23
Ba 2.08
Cl 0.97
Co 1.26
N 0.68
O 0.62
loop_
_atom_site_label
_atom_site_type_symbol
_atom_site_fract_x
_atom_site_fract_y
_atom_site_fract_z
Ba1 Ba 0.00000 0.00000 0.00000
Co1 Co 0.17307(4) 0.00000 0.00000
O1 O 0.1100(1) 0.0716(2) -0.0007(4)
O2 O 0.1736(2) 0.0016(2) 0.0978(5)
N1 N 0.2355(2) 0.0766(3) 0.0063(5)
C1 C 0.1299(2) 0.1256(2) 0.0029(5)
C2 C 0.1995(3) 0.1352(3) 0.006(1)
C3 C 0.2210(8) 0.168(1) -0.052(2)
C4 C 0.279(1) 0.1435(8) -0.072(1)
C5 C 0.2812(5) 0.0831(7) -0.0434(7)
H1 H 0.25720 0.07350 0.04540
H2 H 0.21140 0.16240 0.03850
H3 H 0.30870 0.16670 -0.02830
H4 H 0.31150 0.14810 -0.09730
H5 H 0.31940 0.06610 -0.03110
H6 H 0.26640 0.06060 -0.07880
H7 H 0.20230 0.13800 -0.09930
H8 H 0.21560 0.20310 -0.07280
Cl1 Cl 0.37510 0.37510 0.37510
O3 O 0.33530 0.41560 0.38170
O4 O 0.40730 0.40730 0.40730
N2 N 0.25000 0.25000 0.25000
C6 C 0.21340 0.21340 0.21340
N3 N 0.50000 0.50000 0.50000
C7 C 0.53970 0.53970 0.53970
Co1A Co 0.00000(4) 0.17307 0.00000
Co1B Co 0.00000(4) 0.00000 0.17307
Co1D Co 0.00000(4) -0.17307 0.00000
Co1E Co 0.00000(4) 0.00000 -0.17307
Co1F Co -0.17307(4) 0.00000 0.00000
O1C O 0.1100(1) -0.0716(2) 0.0007(4)
O1A O -0.0007(1) 0.1100(2) 0.0716(4)
O1G O 0.0007(1) 0.1100(2) -0.0716(4)
O1B O 0.0716(1) -0.0007(2) 0.1100(4)
O1K O -0.0716(1) 0.0007(2) 0.1100(4)
O1D O -0.0007(1) -0.1100(2) -0.0716(4)
O1J O 0.0007(1) -0.1100(2) 0.0716(4)
O1E O 0.0716(1) 0.0007(2) -0.1100(4)
O1H O -0.0716(1) -0.0007(2) -0.1100(4)
O1F O -0.1100(1) 0.0716(2) 0.0007(4)
O1I O -0.1100(1) -0.0716(2) -0.0007(4)
O2J O -0.0978(2) -0.1736(2) 0.0016(5)
O2D O 0.0978(2) -0.1736(2) -0.0016(5)
O2B O 0.0016(2) 0.0978(2) 0.1736(5)
O2A O 0.0978(2) 0.1736(2) 0.0016(5)
O2C O 0.1736(2) -0.0016(2) -0.0978(5)
O2E O 0.0016(2) -0.0978(2) -0.1736(5)
O2K O -0.0016(2) -0.0978(2) 0.1736(5)
O2I O -0.1736(2) -0.0016(2) 0.0978(5)
O2F O -0.1736(2) 0.0016(2) -0.0978(5)
O2H O -0.0016(2) 0.0978(2) -0.1736(5)
O2G O -0.0978(2) 0.1736(2) -0.0016(5)
N1C N 0.2355(2) -0.0766(3) -0.0063(5)
N1B N 0.0766(2) 0.0063(3) 0.2355(5)
N1A N 0.0063(2) 0.2355(3) 0.0766(5)
N1E N 0.0766(2) -0.0063(3) -0.2355(5)
N1D N 0.0063(2) -0.2355(3) -0.0766(5)
N1J N -0.0063(2) -0.2355(3) 0.0766(5)
N1K N -0.0766(2) -0.0063(3) 0.2355(5)
N1H N -0.0766(2) 0.0063(3) -0.2355(5)
N1G N -0.0063(2) 0.2355(3) -0.0766(5)
N1F N -0.2355(2) 0.0766(3) -0.0063(5)
N1I N -0.2355(2) -0.0766(3) 0.0063(5)
C1I C -0.1299(2) -0.1256(2) 0.0029(5)
C1C C 0.1299(2) -0.1256(2) -0.0029(5)
C1B C 0.1256(2) 0.0029(2) 0.1299(5)
C1A C 0.0029(2) 0.1299(2) 0.1256(5)
C1E C 0.1256(2) -0.0029(2) -0.1299(5)
C1D C 0.0029(2) -0.1299(2) -0.1256(5)
C1J C -0.0029(2) -0.1299(2) 0.1256(5)
C1K C -0.1256(2) -0.0029(2) 0.1299(5)
C1H C -0.1256(2) 0.0029(2) -0.1299(5)
C1G C -0.0029(2) 0.1299(2) -0.1256(5)
C1F C -0.1299(2) 0.1256(2) -0.0029(5)
C2C C 0.1995(3) -0.1352(3) -0.006(1)
C2B C 0.1352(3) 0.0060(3) 0.1995(10)
C2A C 0.0060(3) 0.1995(3) 0.1352(10)
C2E C 0.1352(3) -0.0060(3) -0.1995(10)
C2D C 0.0060(3) -0.1995(3) -0.1352(10)
C2J C -0.0060(3) -0.1995(3) 0.1352(10)
C2K C -0.1352(3) -0.0060(3) 0.1995(10)
C2H C -0.1352(3) 0.0060(3) -0.1995(10)
C2G C -0.0060(3) 0.1995(3) -0.1352(10)
C2F C -0.1995(3) 0.1352(3) -0.006(1)
C2I C -0.1995(3) -0.1352(3) 0.006(1)
C3I C -0.2210(8) -0.168(1) -0.052(2)
C3F C -0.2210(8) 0.168(1) 0.052(2)
C3G C 0.0520(8) 0.221(1) -0.168(2)
C3H C -0.1680(8) -0.052(1) -0.221(2)
C3K C -0.1680(8) 0.052(1) 0.221(2)
C3J C 0.0520(8) -0.221(1) 0.168(2)
C3D C -0.0520(8) -0.221(1) -0.168(2)
C3E C 0.1680(8) 0.052(1) -0.221(2)
C3A C -0.0520(8) 0.221(1) 0.168(2)
C3B C 0.1680(8) -0.052(1) 0.221(2)
C3C C 0.2210(8) -0.168(1) 0.052(2)
C4I C -0.279(1) -0.1435(8) -0.072(1)
C4F C -0.279(1) 0.1435(8) 0.072(1)
C4G C 0.072(1) 0.2790(8) -0.1435(10)
C4H C -0.1435(10) -0.0720(8) -0.279(1)
C4K C -0.1435(10) 0.0720(8) 0.279(1)
C4J C 0.072(1) -0.2790(8) 0.1435(10)
C4D C -0.072(1) -0.2790(8) -0.1435(10)
C4E C 0.1435(10) 0.0720(8) -0.279(1)
C4A C -0.072(1) 0.2790(8) 0.1435(10)
C4B C 0.1435(10) -0.0720(8) 0.279(1)
C4C C 0.279(1) -0.1435(8) 0.072(1)
C5I C -0.2812(5) -0.0831(7) -0.0434(7)
C5F C -0.2812(5) 0.0831(7) 0.0434(7)
C5G C 0.0434(5) 0.2812(7) -0.0831(7)
C5H C -0.0831(5) -0.0434(7) -0.2812(7)
C5K C -0.0831(5) 0.0434(7) 0.2812(7)
C5J C 0.0434(5) -0.2812(7) 0.0831(7)
C5D C -0.0434(5) -0.2812(7) -0.0831(7)
C5E C 0.0831(5) 0.0434(7) -0.2812(7)
C5A C -0.0434(5) 0.2812(7) 0.0831(7)
C5B C 0.0831(5) -0.0434(7) 0.2812(7)
C5C C 0.2812(5) -0.0831(7) 0.0434(7)
H1I H -0.25720 -0.07350 0.04540
H1F H -0.25720 0.07350 -0.04540
H1G H -0.04540 0.25720 -0.07350
H1H H -0.07350 0.04540 -0.25720
H1K H -0.07350 -0.04540 0.25720
H1J H -0.04540 -0.25720 0.07350
H1D H 0.04540 -0.25720 -0.07350
H1E H 0.07350 -0.04540 -0.25720
H1A H 0.04540 0.25720 0.07350
H1B H 0.07350 0.04540 0.25720
H1C H 0.25720 -0.07350 -0.04540
H2I H -0.21140 -0.16240 0.03850
H2F H -0.21140 0.16240 -0.03850
H2G H -0.03850 0.21140 -0.16240
H2H H -0.16240 0.03850 -0.21140
H2K H -0.16240 -0.03850 0.21140
H2J H -0.03850 -0.21140 0.16240
H2D H 0.03850 -0.21140 -0.16240
H2E H 0.16240 -0.03850 -0.21140
H2A H 0.03850 0.21140 0.16240
H2B H 0.16240 0.03850 0.21140
H2C H 0.21140 -0.16240 -0.03850
H3I H -0.30870 -0.16670 -0.02830
H3F H -0.30870 0.16670 0.02830
H3G H 0.02830 0.30870 -0.16670
H3H H -0.16670 -0.02830 -0.30870
H3K H -0.16670 0.02830 0.30870
H3J H 0.02830 -0.30870 0.16670
H3D H -0.02830 -0.30870 -0.16670
H3E H 0.16670 0.02830 -0.30870
H3A H -0.02830 0.30870 0.16670
H3B H 0.16670 -0.02830 0.30870
H3C H 0.30870 -0.16670 0.02830
H4I H -0.31150 -0.14810 -0.09730
H4F H -0.31150 0.14810 0.09730
H4G H 0.09730 0.31150 -0.14810
H4H H -0.14810 -0.09730 -0.31150
H4K H -0.14810 0.09730 0.31150
H4J H 0.09730 -0.31150 0.14810
H4D H -0.09730 -0.31150 -0.14810
H4E H 0.14810 0.09730 -0.31150
H4A H -0.09730 0.31150 0.14810
H4B H 0.14810 -0.09730 0.31150
H4C H 0.31150 -0.14810 0.09730
H5I H -0.31940 -0.06610 -0.03110
H5F H -0.31940 0.06610 0.03110
H5G H 0.03110 0.31940 -0.06610
H5H H -0.06610 -0.03110 -0.31940
H5K H -0.06610 0.03110 0.31940
H5J H 0.03110 -0.31940 0.06610
H5D H -0.03110 -0.31940 -0.06610
H5E H 0.06610 0.03110 -0.31940
H5A H -0.03110 0.31940 0.06610
H5B H 0.06610 -0.03110 0.31940
H5C H 0.31940 -0.06610 0.03110
H6I H -0.26640 -0.06060 -0.07880
H6F H -0.26640 0.06060 0.07880
H6G H 0.07880 0.26640 -0.06060
H6H H -0.06060 -0.07880 -0.26640
H6K H -0.06060 0.07880 0.26640
H6J H 0.07880 -0.26640 0.06060
H6D H -0.07880 -0.26640 -0.06060
H6E H 0.06060 0.07880 -0.26640
H6A H -0.07880 0.26640 0.06060
H6B H 0.06060 -0.07880 0.26640
H6C H 0.26640 -0.06060 0.07880
H7I H -0.20230 -0.13800 -0.09930
H7F H -0.20230 0.13800 0.09930
H7G H 0.09930 0.20230 -0.13800
H7H H -0.13800 -0.09930 -0.20230
H7K H -0.13800 0.09930 0.20230
H7J H 0.09930 -0.20230 0.13800
H7D H -0.09930 -0.20230 -0.13800
H7E H 0.13800 0.09930 -0.20230
H7A H -0.09930 0.20230 0.13800
H7B H 0.13800 -0.09930 0.20230
H7C H 0.20230 -0.13800 0.09930
H8I H -0.21560 -0.20310 -0.07280
H8F H -0.21560 0.20310 0.07280
H8G H 0.07280 0.21560 -0.20310
H8H H -0.20310 -0.07280 -0.21560
H8K H -0.20310 0.07280 0.21560
H8J H 0.07280 -0.21560 0.20310
H8D H -0.07280 -0.21560 -0.20310
H8E H 0.20310 0.07280 -0.21560
H8A H -0.07280 0.21560 0.20310
H8B H 0.20310 -0.07280 0.21560
H8C H 0.21560 -0.20310 0.07280
O3A O 0.38170 0.33530 0.41560
O3B O 0.41560 0.38170 0.33530
C6O C 0.21340 0.28660 0.28660
C6DA C 0.28660 0.21340 0.28660
C6SA C 0.28660 0.28660 0.21340
C7C C 0.53970 0.46030 0.46030
C7F C 0.46030 0.53970 0.46030
C7I C 0.46030 0.46030 0.53970
#END

data_CSD_CIF_RUHJUA
_audit_creation_date 2010-03-10
_audit_creation_method CSD-ConQuest-V1
_database_code_CSD RUHJUA
_database_code_depnum_ccdc_archive 'CCDC 258970'
_chemical_formula_sum 'C64 H108 Cl4 Co6 La1 N13 O40'
_chemical_formula_moiety
;
C4 H12 N1 1+,C60 H96 Co6 La1 N12 O24 3+,4(Cl1 O4 1-)
;
_journal_coden_Cambridge 241
_journal_volume 34
_journal_year 2005
_journal_page_first 300
_journal_name_full 'Chem.Lett. '
loop_
_publ_author_name
"T.Komiyama"
"S.Igarashi"
"Y.Hoshino"
"Y.Yukawa"
_chemical_name_systematic
;
Tetramethylammonium 
dodecakis(\m~3~-L-prolinato-N,O,O,O')-hexa-cobalt(ii)-lanthanum(iii) 
tetraperchlorate
;
_cell_volume  10060.909
_exptl_crystal_colour 'pale orange'
_exptl_crystal_density_diffrn 1.541
_exptl_crystal_description 'tetrahedral'
_diffrn_ambient_temperature 296.2
#These two values have been output from a single CSD field.
_refine_ls_R_factor_gt 0.0481
_refine_ls_wR_factor_gt 0.0481
_symmetry_cell_setting cubic
_symmetry_space_group_name_H-M 'F 2 3'
_symmetry_Int_Tables_number 196
loop_
_symmetry_equiv_pos_site_id
_symmetry_equiv_pos_as_xyz
1 x,y,z
2 z,x,y
3 y,z,x
4 x,-y,-z
5 z,-x,-y
6 y,-z,-x
7 -x,y,-z
8 -z,x,-y
9 -y,z,-x
10 -x,-y,z
11 -z,-x,y
12 -y,-z,x
13 x,1/2+y,1/2+z
14 z,1/2+x,1/2+y
15 y,1/2+z,1/2+x
16 x,1/2-y,1/2-z
17 z,1/2-x,1/2-y
18 y,1/2-z,1/2-x
19 -x,1/2+y,1/2-z
20 -z,1/2+x,1/2-y
21 -y,1/2+z,1/2-x
22 -x,1/2-y,1/2+z
23 -z,1/2-x,1/2+y
24 -y,1/2-z,1/2+x
25 1/2+x,y,1/2+z
26 1/2+z,x,1/2+y
27 1/2+y,z,1/2+x
28 1/2+x,-y,1/2-z
29 1/2+z,-x,1/2-y
30 1/2+y,-z,1/2-x
31 1/2-x,y,1/2-z
32 1/2-z,x,1/2-y
33 1/2-y,z,1/2-x
34 1/2-x,-y,1/2+z
35 1/2-z,-x,1/2+y
36 1/2-y,-z,1/2+x
37 1/2+x,1/2+y,z
38 1/2+z,1/2+x,y
39 1/2+y,1/2+z,x
40 1/2+x,1/2-y,-z
41 1/2+z,1/2-x,-y
42 1/2+y,1/2-z,-x
43 1/2-x,1/2+y,-z
44 1/2-z,1/2+x,-y
45 1/2-y,1/2+z,-x
46 1/2-x,1/2-y,z
47 1/2-z,1/2-x,y
48 1/2-y,1/2-z,x
_cell_length_a 21.588(2)
_cell_length_b 21.588(2)
_cell_length_c 21.588(2)
_cell_angle_alpha 90
_cell_angle_beta 90
_cell_angle_gamma 90
_cell_formula_units_Z 4
loop_
_atom_type_symbol
_atom_type_radius_bond
C 0.68
H 0.23
Cl 0.99
Co 1.26
La 2.07
N 0.68
O 0.68
loop_
_atom_site_label
_atom_site_type_symbol
_atom_site_fract_x
_atom_site_fract_y
_atom_site_fract_z
La1 La 0.00000 0.00000 0.00000
Co1 Co 0.17597(6) 0.00000 0.00000
O1 O 0.1083(2) 0.0697(2) 0.0020(5)
O2 O 0.1736(2) 0.0015(2) 0.0972(7)
N1 N 0.2375(3) 0.0771(4) 0.0055(8)
C1 C 0.1288(3) 0.1246(3) 0.0030(7)
C2 C 0.1993(4) 0.1347(4) 0.003(1)
C3 C 0.221(1) 0.164(1) -0.058(2)
C4 C 0.286(1) 0.147(1) -0.063(1)
C5 C 0.2849(8) 0.084(1) -0.0431(9)
H1 H 0.19850 0.15390 -0.08610
H2 H 0.22020 0.21080 -0.04800
H3 H 0.29880 0.15500 -0.10070
H4 H 0.31160 0.17000 -0.03160
H5 H 0.32460 0.07040 -0.03120
H6 H 0.27340 0.06000 -0.08060
H7 H 0.25930 0.07330 0.04350
H8 H 0.21040 0.15930 0.04390
Cl1 Cl 0.37380 0.37380 0.37380
O3 O 0.31690 0.40030 0.37060
O4 O 0.41380 0.41380 0.41380
N2 N 0.25000 0.25000 0.25000
C6 C 0.21230 0.21230 0.21230
Co1A Co 0.00000(6) 0.17597 0.00000
Co1B Co 0.00000(6) 0.00000 0.17597
Co1D Co 0.00000(6) -0.17597 0.00000
Co1E Co 0.00000(6) 0.00000 -0.17597
Co1F Co -0.17597(6) 0.00000 0.00000
O1C O 0.1083(2) -0.0697(2) -0.0020(5)
O1A O 0.0020(2) 0.1083(2) 0.0697(5)
O1G O -0.0020(2) 0.1083(2) -0.0697(5)
O1B O 0.0697(2) 0.0020(2) 0.1083(5)
O1K O -0.0697(2) -0.0020(2) 0.1083(5)
O1D O 0.0020(2) -0.1083(2) -0.0697(5)
O1J O -0.0020(2) -0.1083(2) 0.0697(5)
O1E O 0.0697(2) -0.0020(2) -0.1083(5)
O1H O -0.0697(2) 0.0020(2) -0.1083(5)
O1F O -0.1083(2) 0.0697(2) -0.0020(5)
O1I O -0.1083(2) -0.0697(2) 0.0020(5)
O2J O -0.0972(2) -0.1736(2) 0.0015(7)
O2D O 0.0972(2) -0.1736(2) -0.0015(7)
O2B O 0.0015(2) 0.0972(2) 0.1736(7)
O2A O 0.0972(2) 0.1736(2) 0.0015(7)
O2C O 0.1736(2) -0.0015(2) -0.0972(7)
O2E O 0.0015(2) -0.0972(2) -0.1736(7)
O2K O -0.0015(2) -0.0972(2) 0.1736(7)
O2I O -0.1736(2) -0.0015(2) 0.0972(7)
O2F O -0.1736(2) 0.0015(2) -0.0972(7)
O2H O -0.0015(2) 0.0972(2) -0.1736(7)
O2G O -0.0972(2) 0.1736(2) -0.0015(7)
N1C N 0.2375(3) -0.0771(4) -0.0055(8)
N1B N 0.0771(3) 0.0055(4) 0.2375(8)
N1A N 0.0055(3) 0.2375(4) 0.0771(8)
N1E N 0.0771(3) -0.0055(4) -0.2375(8)
N1D N 0.0055(3) -0.2375(4) -0.0771(8)
N1J N -0.0055(3) -0.2375(4) 0.0771(8)
N1K N -0.0771(3) -0.0055(4) 0.2375(8)
N1H N -0.0771(3) 0.0055(4) -0.2375(8)
N1G N -0.0055(3) 0.2375(4) -0.0771(8)
N1F N -0.2375(3) 0.0771(4) -0.0055(8)
N1I N -0.2375(3) -0.0771(4) 0.0055(8)
C1I C -0.1288(3) -0.1246(3) 0.0030(7)
C1C C 0.1288(3) -0.1246(3) -0.0030(7)
C1B C 0.1246(3) 0.0030(3) 0.1288(7)
C1A C 0.0030(3) 0.1288(3) 0.1246(7)
C1E C 0.1246(3) -0.0030(3) -0.1288(7)
C1D C 0.0030(3) -0.1288(3) -0.1246(7)
C1J C -0.0030(3) -0.1288(3) 0.1246(7)
C1K C -0.1246(3) -0.0030(3) 0.1288(7)
C1H C -0.1246(3) 0.0030(3) -0.1288(7)
C1G C -0.0030(3) 0.1288(3) -0.1246(7)
C1F C -0.1288(3) 0.1246(3) -0.0030(7)
C2C C 0.1993(4) -0.1347(4) -0.003(1)
C2B C 0.1347(4) 0.0030(4) 0.1993(10)
C2A C 0.0030(4) 0.1993(4) 0.1347(10)
C2E C 0.1347(4) -0.0030(4) -0.1993(10)
C2D C 0.0030(4) -0.1993(4) -0.1347(10)
C2J C -0.0030(4) -0.1993(4) 0.1347(10)
C2K C -0.1347(4) -0.0030(4) 0.1993(10)
C2H C -0.1347(4) 0.0030(4) -0.1993(10)
C2G C -0.0030(4) 0.1993(4) -0.1347(10)
C2F C -0.1993(4) 0.1347(4) -0.003(1)
C2I C -0.1993(4) -0.1347(4) 0.003(1)
C3I C -0.221(1) -0.164(1) -0.058(2)
C3F C -0.221(1) 0.164(1) 0.058(2)
C3G C 0.058(1) 0.221(1) -0.164(2)
C3H C -0.164(1) -0.058(1) -0.221(2)
C3K C -0.164(1) 0.058(1) 0.221(2)
C3J C 0.058(1) -0.221(1) 0.164(2)
C3D C -0.058(1) -0.221(1) -0.164(2)
C3E C 0.164(1) 0.058(1) -0.221(2)
C3A C -0.058(1) 0.221(1) 0.164(2)
C3B C 0.164(1) -0.058(1) 0.221(2)
C3C C 0.221(1) -0.164(1) 0.058(2)
C4I C -0.286(1) -0.147(1) -0.063(1)
C4F C -0.286(1) 0.147(1) 0.063(1)
C4G C 0.063(1) 0.286(1) -0.147(1)
C4H C -0.147(1) -0.063(1) -0.286(1)
C4K C -0.147(1) 0.063(1) 0.286(1)
C4J C 0.063(1) -0.286(1) 0.147(1)
C4D C -0.063(1) -0.286(1) -0.147(1)
C4E C 0.147(1) 0.063(1) -0.286(1)
C4A C -0.063(1) 0.286(1) 0.147(1)
C4B C 0.147(1) -0.063(1) 0.286(1)
C4C C 0.286(1) -0.147(1) 0.063(1)
C5I C -0.2849(8) -0.084(1) -0.0431(9)
C5F C -0.2849(8) 0.084(1) 0.0431(9)
C5G C 0.0431(8) 0.2849(10) -0.0840(9)
C5H C -0.0840(8) -0.0431(10) -0.2849(9)
C5K C -0.0840(8) 0.0431(10) 0.2849(9)
C5J C 0.0431(8) -0.2849(10) 0.0840(9)
C5D C -0.0431(8) -0.2849(10) -0.0840(9)
C5E C 0.0840(8) 0.0431(10) -0.2849(9)
C5A C -0.0431(8) 0.2849(10) 0.0840(9)
C5B C 0.0840(8) -0.0431(10) 0.2849(9)
C5C C 0.2849(8) -0.084(1) 0.0431(9)
H1I H -0.19850 -0.15390 -0.08610
H1F H -0.19850 0.15390 0.08610
H1G H 0.08610 0.19850 -0.15390
H1H H -0.15390 -0.08610 -0.19850
H1K H -0.15390 0.08610 0.19850
H1J H 0.08610 -0.19850 0.15390
H1D H -0.08610 -0.19850 -0.15390
H1E H 0.15390 0.08610 -0.19850
H1A H -0.08610 0.19850 0.15390
H1B H 0.15390 -0.08610 0.19850
H1C H 0.19850 -0.15390 0.08610
H2I H -0.22020 -0.21080 -0.04800
H2F H -0.22020 0.21080 0.04800
H2G H 0.04800 0.22020 -0.21080
H2H H -0.21080 -0.04800 -0.22020
H2K H -0.21080 0.04800 0.22020
H2J H 0.04800 -0.22020 0.21080
H2D H -0.04800 -0.22020 -0.21080
H2E H 0.21080 0.04800 -0.22020
H2A H -0.04800 0.22020 0.21080
H2B H 0.21080 -0.04800 0.22020
H2C H 0.22020 -0.21080 0.04800
H3I H -0.29880 -0.15500 -0.10070
H3F H -0.29880 0.15500 0.10070
H3G H 0.10070 0.29880 -0.15500
H3H H -0.15500 -0.10070 -0.29880
H3K H -0.15500 0.10070 0.29880
H3J H 0.10070 -0.29880 0.15500
H3D H -0.10070 -0.29880 -0.15500
H3E H 0.15500 0.10070 -0.29880
H3A H -0.10070 0.29880 0.15500
H3B H 0.15500 -0.10070 0.29880
H3C H 0.29880 -0.15500 0.10070
H4I H -0.31160 -0.17000 -0.03160
H4F H -0.31160 0.17000 0.03160
H4G H 0.03160 0.31160 -0.17000
H4H H -0.17000 -0.03160 -0.31160
H4K H -0.17000 0.03160 0.31160
H4J H 0.03160 -0.31160 0.17000
H4D H -0.03160 -0.31160 -0.17000
H4E H 0.17000 0.03160 -0.31160
H4A H -0.03160 0.31160 0.17000
H4B H 0.17000 -0.03160 0.31160
H4C H 0.31160 -0.17000 0.03160
H5I H -0.32460 -0.07040 -0.03120
H5F H -0.32460 0.07040 0.03120
H5G H 0.03120 0.32460 -0.07040
H5H H -0.07040 -0.03120 -0.32460
H5K H -0.07040 0.03120 0.32460
H5J H 0.03120 -0.32460 0.07040
H5D H -0.03120 -0.32460 -0.07040
H5E H 0.07040 0.03120 -0.32460
H5A H -0.03120 0.32460 0.07040
H5B H 0.07040 -0.03120 0.32460
H5C H 0.32460 -0.07040 0.03120
H6I H -0.27340 -0.06000 -0.08060
H6F H -0.27340 0.06000 0.08060
H6G H 0.08060 0.27340 -0.06000
H6H H -0.06000 -0.08060 -0.27340
H6K H -0.06000 0.08060 0.27340
H6J H 0.08060 -0.27340 0.06000
H6D H -0.08060 -0.27340 -0.06000
H6E H 0.06000 0.08060 -0.27340
H6A H -0.08060 0.27340 0.06000
H6B H 0.06000 -0.08060 0.27340
H6C H 0.27340 -0.06000 0.08060
H7I H -0.25930 -0.07330 0.04350
H7F H -0.25930 0.07330 -0.04350
H7G H -0.04350 0.25930 -0.07330
H7H H -0.07330 0.04350 -0.25930
H7K H -0.07330 -0.04350 0.25930
H7J H -0.04350 -0.25930 0.07330
H7D H 0.04350 -0.25930 -0.07330
H7E H 0.07330 -0.04350 -0.25930
H7A H 0.04350 0.25930 0.07330
H7B H 0.07330 0.04350 0.25930
H7C H 0.25930 -0.07330 -0.04350
H8I H -0.21040 -0.15930 0.04390
H8F H -0.21040 0.15930 -0.04390
H8G H -0.04390 0.21040 -0.15930
H8H H -0.15930 0.04390 -0.21040
H8K H -0.15930 -0.04390 0.21040
H8J H -0.04390 -0.21040 0.15930
H8D H 0.04390 -0.21040 -0.15930
H8E H 0.15930 -0.04390 -0.21040
H8A H 0.04390 0.21040 0.15930
H8B H 0.15930 0.04390 0.21040
H8C H 0.21040 -0.15930 -0.04390
O3A O 0.37060 0.31690 0.40030
O3B O 0.40030 0.37060 0.31690
C6O C 0.21230 0.28770 0.28770
C6DA C 0.28770 0.21230 0.28770
C6SA C 0.28770 0.28770 0.21230
#END

data_CSD_CIF_TIRTEV
_audit_creation_date 2013-10-11
_audit_creation_method CSD-ConQuest-V1
_database_code_CSD TIRTEV
_database_code_depnum_ccdc_archive 'CCDC 823783'
_chemical_formula_sum 'C72 H96 Au4 Br2 Co2 N4 O14 P4 S4'
_chemical_formula_moiety
;
C72 H84 Au4 Co2 N4 O8 P4 S4 2+,6(H2 O1),2(Br1 1-)
;
_journal_coden_Cambridge 7
_journal_volume 86
_journal_year 2013
_journal_page_first 908
_journal_name_full 'Bull.Chem.Soc.Jpn. '
loop_
_publ_author_name
"R.Lee"
"A.Igashira-Kamiyama"
"H.Motoyoshi"
"T.Konno"
_chemical_name_systematic
;
tetrakis(\m~2~-3-Sulfanylvalinato)-bis(\m~2~-1,2-bis(diphenylphosphino)ethane)
-di-cobalt-tetra-gold dibromide hexahydrate
;
_cell_volume  55350.772
_exptl_crystal_colour 'purple'
_exptl_crystal_density_diffrn 1.843
_exptl_crystal_description 'block'
_diffrn_ambient_temperature 200
#These two values have been output from a single CSD field.
_refine_ls_R_factor_gt 0.0331
_refine_ls_wR_factor_gt 0.0331
_symmetry_cell_setting cubic
_symmetry_space_group_name_H-M 'F 2 3'
_symmetry_Int_Tables_number 196
loop_
_symmetry_equiv_pos_site_id
_symmetry_equiv_pos_as_xyz
1 x,y,z
2 -x,-y,z
3 x,-y,-z
4 -x,y,-z
5 z,x,y
6 y,z,x
7 -z,-x,y
8 -y,z,-x
9 z,-x,-y
10 -y,-z,x
11 -z,x,-y
12 y,-z,-x
13 x,1/2+y,1/2+z
14 -x,1/2-y,1/2+z
15 x,1/2-y,1/2-z
16 -x,1/2+y,1/2-z
17 z,1/2+x,1/2+y
18 y,1/2+z,1/2+x
19 -z,1/2-x,1/2+y
20 -y,1/2+z,1/2-x
21 z,1/2-x,1/2-y
22 -y,1/2-z,1/2+x
23 -z,1/2+x,1/2-y
24 y,1/2-z,1/2-x
25 1/2+x,y,1/2+z
26 1/2-x,-y,1/2+z
27 1/2+x,-y,1/2-z
28 1/2-x,y,1/2-z
29 1/2+z,x,1/2+y
30 1/2+y,z,1/2+x
31 1/2-z,-x,1/2+y
32 1/2-y,z,1/2-x
33 1/2+z,-x,1/2-y
34 1/2-y,-z,1/2+x
35 1/2-z,x,1/2-y
36 1/2+y,-z,1/2-x
37 1/2+x,1/2+y,z
38 1/2-x,1/2-y,z
39 1/2+x,1/2-y,-z
40 1/2-x,1/2+y,-z
41 1/2+z,1/2+x,y
42 1/2+y,1/2+z,x
43 1/2-z,1/2-x,y
44 1/2-y,1/2+z,-x
45 1/2+z,1/2-x,-y
46 1/2-y,1/2-z,x
47 1/2-z,1/2+x,-y
48 1/2+y,1/2-z,-x
_cell_length_a 38.1102(14)
_cell_length_b 38.1102(14)
_cell_length_c 38.1102(14)
_cell_angle_alpha 90
_cell_angle_beta 90
_cell_angle_gamma 90
_cell_formula_units_Z 24
loop_
_atom_type_symbol
_atom_type_radius_bond
C 0.68
H 0.23
Au 1.36
Br 1.21
Co 1.26
N 0.68
O 0.68
P 1.05
S 1.02
loop_
_atom_site_label
_atom_site_type_symbol
_atom_site_fract_x
_atom_site_fract_y
_atom_site_fract_z
Au1 Au 0.252782(8) 0.515330(8) 0.170782(8)
Au2 Au 0.179331(9) 0.477986(9) 0.219568(9)
Co1 Co 0.17497(3) 0.49230(3) 0.12567(3)
S1 S 0.22775(5) 0.46833(5) 0.14112(5)
S2 S 0.16442(5) 0.52026(5) 0.17788(6)
P1 P 0.27653(6) 0.56233(6) 0.19824(6)
P2 P 0.19276(6) 0.43575(6) 0.25936(6)
N1 N 0.18514(18) 0.47356(18) 0.07954(18)
H1 H 0.18470 0.44940 0.07960
H2 H 0.16940 0.48170 0.06320
N2 N 0.12847(19) 0.5070(2) 0.11306(19)
H3 H 0.12740 0.53100 0.11030
H4 H 0.12130 0.49650 0.09260
O1 O 0.19722(15) 0.53276(14) 0.10673(16)
O2 O 0.23808(17) 0.54756(16) 0.06765(18)
O3 O 0.15113(15) 0.45123(15) 0.14188(16)
O4 O 0.09933(17) 0.43590(19) 0.1634(2)
C1 C 0.2477(2) 0.46756(19) 0.0965(2)
C2 C 0.2206(2) 0.4869(2) 0.0725(2)
H5 H 0.22680 0.48360 0.04720
C3 C 0.2196(2) 0.5258(2) 0.0816(2)
C4 C 0.2531(3) 0.4302(2) 0.0852(2)
H6 H 0.23050 0.41790 0.08510
H7 H 0.26910 0.41850 0.10160
H8 H 0.26320 0.42980 0.06160
C5 C 0.2837(2) 0.4849(3) 0.0955(3)
H9 H 0.28160 0.50950 0.10260
H10 H 0.29310 0.48370 0.07160
H11 H 0.29960 0.47270 0.11160
C6 C 0.1150(2) 0.5191(2) 0.1755(2)
C7 C 0.1063(2) 0.4952(3) 0.1437(3)
H12 H 0.08070 0.49610 0.13780
C8 C 0.1182(2) 0.4580(2) 0.1508(2)
C9 C 0.1025(3) 0.5560(3) 0.1687(3)
H13 H 0.11370 0.56500 0.14730
H14 H 0.10880 0.57100 0.18860
H15 H 0.07700 0.55600 0.16560
C10 C 0.0983(3) 0.5044(3) 0.2091(3)
H16 H 0.10680 0.48050 0.21320
H17 H 0.07270 0.50420 0.20650
H18 H 0.10480 0.51930 0.22910
C11 C 0.2700(2) 0.5627(2) 0.2445(2)
H19 H 0.28150 0.54180 0.25480
H20 H 0.28140 0.58380 0.25440
C12 C 0.3233(2) 0.5665(3) 0.1920(3)
C13 C 0.3457(3) 0.5711(3) 0.2194(4)
H21 H 0.33700 0.57340 0.24270
C14 C 0.3828(3) 0.5724(4) 0.2125(4)
H22 H 0.39870 0.57480 0.23150
C15 C 0.3955(3) 0.5703(4) 0.1795(4)
H23 H 0.41990 0.57270 0.17480
C16 C 0.3711(4) 0.5645(7) 0.1523(5)
H24 H 0.37970 0.56020 0.12930
C17 C 0.3359(4) 0.5647(5) 0.1575(4)
H25 H 0.32020 0.56370 0.13820
C18 C 0.2574(2) 0.6024(2) 0.1822(2)
C19 C 0.2682(3) 0.6350(3) 0.1972(3)
H26 H 0.28540 0.63570 0.21510
C20 C 0.2525(3) 0.6664(2) 0.1847(3)
H27 H 0.25910 0.68810 0.19500
C21 C 0.2285(3) 0.6662(3) 0.1587(3)
H28 H 0.21940 0.68750 0.14960
C22 C 0.2174(3) 0.6337(3) 0.1453(3)
H29 H 0.19950 0.63300 0.12800
C23 C 0.2318(3) 0.6033(2) 0.1565(2)
H30 H 0.22410 0.58180 0.14650
C24 C 0.2403(2) 0.4332(2) 0.2678(2)
H31 H 0.24790 0.45350 0.28210
H32 H 0.24590 0.41140 0.28100
C25 C 0.1790(2) 0.3921(2) 0.2445(2)
C26 C 0.1529(2) 0.3911(3) 0.2188(2)
H33 H 0.14490 0.41210 0.20810
C27 C 0.1385(3) 0.3580(3) 0.2089(3)
H34 H 0.12070 0.35640 0.19150
C28 C 0.1514(3) 0.3283(3) 0.2252(3)
H35 H 0.14150 0.30620 0.21930
C29 C 0.1784(3) 0.3296(2) 0.2500(3)
H36 H 0.18770 0.30860 0.25970
C30 C 0.1911(3) 0.3618(3) 0.2599(2)
H37 H 0.20860 0.36310 0.27760
C31 C 0.1720(2) 0.4403(2) 0.3020(2)
C32 C 0.1448(3) 0.4628(3) 0.3064(3)
H38 H 0.13820 0.47830 0.28800
C33 C 0.1268(4) 0.4631(5) 0.3382(4)
H39 H 0.10860 0.47980 0.34140
C34 C 0.1338(4) 0.4420(5) 0.3633(4)
H40 H 0.12000 0.44260 0.38400
C35 C 0.1607(4) 0.4186(4) 0.3605(3)
H41 H 0.16620 0.40390 0.37980
C36 C 0.1806(3) 0.4160(3) 0.3292(3)
H42 H 0.19860 0.39900 0.32640
Br1 Br 0.25000 0.25000 0.25000
Br2 Br 0.25000 0.75000 0.25000
Br3 Br 0.15719(6) 0.50000 0.00000
Br4 Br 0.07596(5) 0.57596(5) 0.07596(5)
O5 O 0.0993(4) 0.4654(5) 0.0570(6)
O6 O 0.2789(3) 0.5365(2) 0.0062(2)
O7 O 0.3522(5) 0.5373(4) 0.0077(7)
P1AA P 0.22347(6) 0.56233(6) 0.30176(6)
C11AA C 0.2300(2) 0.5627(2) 0.2555(2)
H19AA H 0.21850 0.54180 0.24520
H20AA H 0.21860 0.58380 0.24560
C12AA C 0.1767(2) 0.5665(3) 0.3080(3)
C13AA C 0.1543(3) 0.5711(3) 0.2806(4)
H21AA H 0.16300 0.57340 0.25730
C14AA C 0.1172(3) 0.5724(4) 0.2875(4)
H22AA H 0.10130 0.57480 0.26850
C15AA C 0.1045(3) 0.5703(4) 0.3205(4)
H23AA H 0.08010 0.57270 0.32520
C16AA C 0.1289(4) 0.5645(7) 0.3477(5)
H24AA H 0.12030 0.56020 0.37070
C17AA C 0.1641(4) 0.5647(5) 0.3425(4)
H25AA H 0.17980 0.56370 0.36180
C18AA C 0.2426(2) 0.6024(2) 0.3178(2)
C19AA C 0.2318(3) 0.6350(3) 0.3028(3)
H26AA H 0.21460 0.63570 0.28490
C20AA C 0.2475(3) 0.6664(2) 0.3153(3)
H27AA H 0.24090 0.68810 0.30500
C21AA C 0.2715(3) 0.6662(3) 0.3413(3)
H28AA H 0.28060 0.68750 0.35040
C22AA C 0.2826(3) 0.6337(3) 0.3547(3)
H29AA H 0.30050 0.63300 0.37200
C23AA C 0.2682(3) 0.6033(2) 0.3435(2)
H30AA H 0.27590 0.58180 0.35350
P2AA P 0.30724(6) 0.43575(6) 0.24064(6)
C24AA C 0.2597(2) 0.4332(2) 0.2322(2)
H31AA H 0.25210 0.45350 0.21790
H32AA H 0.25410 0.41140 0.21900
C25AA C 0.3210(2) 0.3921(2) 0.2555(2)
C26AA C 0.3471(2) 0.3911(3) 0.2812(2)
H33AA H 0.35510 0.41210 0.29190
C27AA C 0.3615(3) 0.3580(3) 0.2911(3)
H34AA H 0.37930 0.35640 0.30850
C28AA C 0.3486(3) 0.3283(3) 0.2748(3)
H35AA H 0.35850 0.30620 0.28070
C29AA C 0.3216(3) 0.3296(2) 0.2500(3)
H36AA H 0.31230 0.30860 0.24030
C30AA C 0.3089(3) 0.3618(3) 0.2401(2)
H37AA H 0.29140 0.36310 0.22240
C31AA C 0.3280(2) 0.4403(2) 0.1980(2)
C32AA C 0.3552(3) 0.4628(3) 0.1936(3)
H38AA H 0.36180 0.47830 0.21200
C33AA C 0.3732(4) 0.4631(5) 0.1618(4)
H39AA H 0.39140 0.47980 0.15860
C34AA C 0.3662(4) 0.4420(5) 0.1367(4)
H40AA H 0.38000 0.44260 0.11600
C35AA C 0.3393(4) 0.4186(4) 0.1395(3)
H41AA H 0.33380 0.40390 0.12020
C36AA C 0.3194(3) 0.4160(3) 0.1708(3)
H42AA H 0.30140 0.39900 0.17360
Au1AA Au 0.247218(8) 0.515330(8) 0.329218(8)
Au2AA Au 0.320669(9) 0.477986(9) 0.280432(9)
Co1AA Co 0.32503(3) 0.49230(3) 0.37433(3)
S1AA S 0.27225(5) 0.46833(5) 0.35888(5)
S2AA S 0.33558(5) 0.52026(5) 0.32212(6)
N1AA N 0.31486(18) 0.47356(18) 0.42046(18)
H1AA H 0.31530 0.44940 0.42040
H2AA H 0.33060 0.48170 0.43680
N2AA N 0.37153(19) 0.5070(2) 0.38694(19)
H3AA H 0.37260 0.53100 0.38970
H4AA H 0.37870 0.49650 0.40740
O1AA O 0.30278(15) 0.53276(14) 0.39327(16)
O2AA O 0.26192(17) 0.54756(16) 0.43235(18)
O3AA O 0.34887(15) 0.45123(15) 0.35812(16)
O4AA O 0.40067(17) 0.43590(19) 0.3366(2)
C1AA C 0.2523(2) 0.46756(19) 0.4035(2)
C2AA C 0.2794(2) 0.4869(2) 0.4275(2)
H5AA H 0.27320 0.48360 0.45280
C3AA C 0.2804(2) 0.5258(2) 0.4184(2)
C4AA C 0.2469(3) 0.4302(2) 0.4148(2)
H6AA H 0.26950 0.41790 0.41490
H7AA H 0.23090 0.41850 0.39840
H8AA H 0.23680 0.42980 0.43840
C5AA C 0.2163(2) 0.4849(3) 0.4045(3)
H9AA H 0.21840 0.50950 0.39740
H10AA H 0.20690 0.48370 0.42840
H11AA H 0.20040 0.47270 0.38840
C6AA C 0.3850(2) 0.5191(2) 0.3245(2)
C7AA C 0.3937(2) 0.4952(3) 0.3563(3)
H12AA H 0.41930 0.49610 0.36220
C8AA C 0.3818(2) 0.4580(2) 0.3492(2)
C9AA C 0.3975(3) 0.5560(3) 0.3313(3)
H13AA H 0.38630 0.56500 0.35270
H14AA H 0.39120 0.57100 0.31140
H15AA H 0.42300 0.55600 0.33440
C10AA C 0.4017(3) 0.5044(3) 0.2909(3)
H16AA H 0.39320 0.48050 0.28680
H17AA H 0.42730 0.50420 0.29350
H18AA H 0.39520 0.51930 0.27090
#END
