
#######################################################################
#
#                 Cambridge Crystallographic Data Centre
#                                CCDC
#
#######################################################################
#
# If this CIF has been generated from an entry in the Cambridge
# Structural Database, then it will include bibliographic, chemical,
# crystal, experimental, refinement or atomic coordinate data resulting
# from the CCDC's data processing and validation procedures.
#
#######################################################################

data_CSD_CIF_BAKYIX
_audit_creation_date 2012-02-16
_audit_creation_method CSD-ConQuest-V1
_database_code_CSD BAKYIX
_database_code_depnum_ccdc_archive 'CCDC 764296'
_chemical_formula_sum 'C55.86 H42.9 Co1.33 N15.96 O4 P1'
_chemical_formula_moiety
;
1.33(C42 H30 Co1 N12),H3 O4 P1
;
_journal_coden_Cambridge 603
_journal_volume 30
_journal_year 2011
_journal_page_first 1791
_journal_name_full 'Jiegou Huaxue(Chin.)(Chin.J.Struct.Chem.) '
loop_
_publ_author_name
"Ying-Chen Guo"
"Shu-Yang Chen"
"Xiao-Yu Bao"
"Dong-Fang Qiu"
"Yu-Quan Feng"
_chemical_name_systematic
;
tris(1H,1'H-2,2'-bibenzimidazole)-cobalt phosphate
;
_cell_volume  15820.812
_exptl_crystal_colour 'red'
_exptl_crystal_density_diffrn 1.399
_exptl_crystal_description 'polyhedron'
_diffrn_ambient_temperature 296
#These two values have been output from a single CSD field.
_refine_ls_R_factor_gt 0.0248
_refine_ls_wR_factor_gt 0.0248
_symmetry_cell_setting cubic
_symmetry_space_group_name_H-M 'I -4 3 d'
_symmetry_Int_Tables_number 220
loop_
_symmetry_equiv_pos_site_id
_symmetry_equiv_pos_as_xyz
1 x,y,z
2 1/2-x,-y,1/2+z
3 -x,1/2+y,1/2-z
4 1/2+x,1/2-y,-z
5 z,x,y
6 1/2+z,1/2-x,-y
7 1/2-z,-x,1/2+y
8 -z,1/2+x,1/2-y
9 y,z,x
10 -y,1/2+z,1/2-x
11 1/2+y,1/2-z,-x
12 1/2-y,-z,1/2+x
13 1/4+y,1/4+x,1/4+z
14 1/4-y,3/4-x,3/4+z
15 3/4+y,1/4-x,3/4-z
16 3/4-y,3/4+x,1/4-z
17 1/4+x,1/4+z,1/4+y
18 3/4-x,3/4+z,1/4-y
19 1/4-x,3/4-z,3/4+y
20 3/4+x,1/4-z,3/4-y
21 1/4+z,1/4+y,1/4+x
22 3/4+z,1/4-y,3/4-x
23 3/4-z,3/4+y,1/4-x
24 1/4-z,3/4-y,3/4+x
25 1/2+x,1/2+y,1/2+z
26 -x,1/2-y,z
27 1/2-x,y,-z
28 x,-y,1/2-z
29 1/2+z,1/2+x,1/2+y
30 z,-x,1/2-y
31 -z,1/2-x,y
32 1/2-z,x,-y
33 1/2+y,1/2+z,1/2+x
34 1/2-y,z,-x
35 y,-z,1/2-x
36 -y,1/2-z,x
37 3/4+y,3/4+x,3/4+z
38 3/4-y,1/4-x,1/4+z
39 1/4+y,3/4-x,1/4-z
40 1/4-y,1/4+x,3/4-z
41 3/4+x,3/4+z,3/4+y
42 1/4-x,1/4+z,3/4-y
43 3/4-x,1/4-z,1/4+y
44 1/4+x,3/4-z,1/4-y
45 3/4+z,3/4+y,3/4+x
46 1/4+z,3/4-y,1/4-x
47 1/4-z,1/4+y,3/4-x
48 3/4-z,1/4-y,1/4+x
_cell_length_a 25.104(6)
_cell_length_b 25.104(6)
_cell_length_c 25.104(6)
_cell_angle_alpha 90
_cell_angle_beta 90
_cell_angle_gamma 90
_cell_formula_units_Z 12
loop_
_atom_type_symbol
_atom_type_radius_bond
C 0.68
H 0.23
Co 1.26
N 0.68
O 0.68
P 1.05
loop_
_atom_site_label
_atom_site_type_symbol
_atom_site_fract_x
_atom_site_fract_y
_atom_site_fract_z
O1 O 1.04338(6) 0.22637(7) 0.40953(6)
P1 P 1.00000 0.25000 0.37500
Co1 Co 0.935253(11) 0.064747(11) 0.564747(11)
N1 N 0.93380(7) 0.14908(7) 0.55423(7)
N2 N 0.93731(7) 0.07251(7) 0.47867(6)
N3 N 0.93751(7) 0.21715(6) 0.49710(7)
H1 H 0.93980 0.23420 0.46750
N4 N 0.94397(7) 0.12799(7) 0.40969(7)
H2 H 0.94650 0.15720 0.39200
C1 C 0.94241(9) 0.07709(9) 0.38896(9)
C2 C 0.93806(9) 0.04280(9) 0.43254(9)
C3 C 0.93514(12) -0.01186(10) 0.42448(10)
H3 H 0.93280 -0.03540 0.45290
C4 C 0.93584(16) -0.02971(11) 0.37257(12)
H4 H 0.93380 -0.06610 0.36600
C5 C 0.93947(16) 0.00487(12) 0.33005(11)
H5 H 0.93990 -0.00890 0.29570
C6 C 0.94253(13) 0.05937(12) 0.3369(1)
H6 H 0.94460 0.08270 0.30820
C7 C 0.94080(8) 0.12286(8) 0.46312(8)
C8 C 0.93796(8) 0.16411(8) 0.50355(9)
C9 C 0.93012(9) 0.19643(8) 0.58276(9)
C10 C 0.93260(9) 0.23892(8) 0.54691(9)
C11 C 0.93066(10) 0.29178(9) 0.56405(12)
H7 H 0.93250 0.32010 0.54020
C12 C 0.92601(11) 0.29984(10) 0.61726(13)
H8 H 0.92490 0.33460 0.63010
C13 C 0.92278(11) 0.25746(11) 0.65357(12)
H9 H 0.91910 0.26490 0.68970
C14 C 0.92491(11) 0.20537(10) 0.63711(10)
H10 H 0.92290 0.17730 0.66120
O1N O 0.97637(6) 0.20662(7) 0.34047(6)
O1Y O 0.95662(6) 0.27363(7) 0.40953(6)
O1MA O 1.02363(6) 0.29338(7) 0.34047(6)
N1F N 0.94577(7) 0.06620(7) 0.64908(7)
N1I N 0.85092(7) 0.05423(7) 0.56620(7)
N2F N 1.02133(7) 0.06269(7) 0.57251(6)
N2I N 0.92749(7) -0.02133(7) 0.56269(6)
N3F N 1.00290(7) 0.06249(6) 0.71715(7)
N3I N 0.78285(7) -0.00290(6) 0.56249(7)
H1F H 1.03250 0.06020 0.73420
H1I H 0.76580 -0.03250 0.56020
N4F N 1.09031(7) 0.05603(7) 0.62799(7)
N4I N 0.87201(7) -0.09031(7) 0.55603(7)
H2F H 1.10800 0.05350 0.65720
H2I H 0.84280 -0.10800 0.55350
C1F C 1.11104(9) 0.05759(9) 0.57709(9)
C1I C 0.92291(9) -0.11104(9) 0.55759(9)
C2F C 1.06746(9) 0.06194(9) 0.54280(9)
C2I C 0.95720(9) -0.06746(9) 0.56194(9)
C3F C 1.07552(12) 0.06486(10) 0.48814(10)
C3I C 1.01186(12) -0.07552(10) 0.56486(10)
H3F H 1.04710 0.06720 0.46460
H3I H 1.03540 -0.04710 0.56720
C4F C 1.12743(16) 0.06416(11) 0.47029(12)
C4I C 1.02971(16) -0.12743(11) 0.56416(12)
H4F H 1.13400 0.06620 0.43390
H4I H 1.06610 -0.13400 0.56620
C5F C 1.16995(16) 0.06053(12) 0.50487(11)
C5I C 0.99513(16) -0.16995(12) 0.56053(11)
H5F H 1.20430 0.06010 0.49110
H5I H 1.00890 -0.20430 0.56010
C6F C 1.16310(13) 0.05747(12) 0.55937(10)
C6I C 0.94063(13) -0.16310(12) 0.55747(10)
H6F H 1.19180 0.05540 0.58270
H6I H 0.91730 -0.19180 0.55540
C7F C 1.03688(8) 0.05920(8) 0.62286(8)
C7I C 0.87714(8) -0.03688(8) 0.55920(8)
C8F C 0.99645(8) 0.06204(8) 0.66411(9)
C8I C 0.83589(8) 0.00355(8) 0.56204(9)
C9F C 0.91724(9) 0.06988(8) 0.69643(9)
C9I C 0.80357(9) 0.08276(8) 0.56988(9)
C10F C 0.95309(9) 0.06740(8) 0.73892(9)
C10I C 0.76108(9) 0.04691(8) 0.56740(9)
C11F C 0.93595(10) 0.06934(9) 0.79178(12)
C11I C 0.70822(10) 0.06405(9) 0.56934(12)
H7F H 0.95980 0.06750 0.82010
H7I H 0.67990 0.04020 0.56750
C12F C 0.88274(11) 0.07399(10) 0.79984(13)
C12I C 0.70016(11) 0.11726(10) 0.57399(13)
H8F H 0.86990 0.07510 0.83460
H8I H 0.66540 0.13010 0.57510
C13F C 0.84643(11) 0.07722(11) 0.75746(12)
C13I C 0.74254(11) 0.15357(11) 0.57722(12)
H9F H 0.81030 0.08090 0.76490
H9I H 0.73510 0.18970 0.58090
C14F C 0.86289(11) 0.07509(10) 0.70537(10)
C14I C 0.79463(11) 0.13711(10) 0.57509(10)
H10F H 0.83880 0.07710 0.67730
H10I H 0.82270 0.16120 0.57710
#END

data_CSD_CIF_BAKYOD
_audit_creation_date 2012-02-16
_audit_creation_method CSD-ConQuest-V1
_database_code_CSD BAKYOD
_database_code_depnum_ccdc_archive 'CCDC 764297'
_chemical_formula_sum 'C55.86 H42.9 N15.96 Ni1.33 O4 P1'
_chemical_formula_moiety
;
1.33(C42 H30 N12 Ni1),H3 O4 P1
;
_journal_coden_Cambridge 603
_journal_volume 30
_journal_year 2011
_journal_page_first 1791
_journal_name_full 'Jiegou Huaxue(Chin.)(Chin.J.Struct.Chem.) '
loop_
_publ_author_name
"Ying-Chen Guo"
"Shu-Yang Chen"
"Xiao-Yu Bao"
"Dong-Fang Qiu"
"Yu-Quan Feng"
_chemical_name_systematic
;
tris(1H,1'H-2,2'-bibenzimidazole)-nickel phosphate
;
_cell_volume  15581.915
_exptl_crystal_colour 'light green'
_exptl_crystal_density_diffrn 1.42
_exptl_crystal_description 'prism'
_diffrn_ambient_temperature 296
#These two values have been output from a single CSD field.
_refine_ls_R_factor_gt 0.0443
_refine_ls_wR_factor_gt 0.0443
_symmetry_cell_setting cubic
_symmetry_space_group_name_H-M 'I -4 3 d'
_symmetry_Int_Tables_number 220
loop_
_symmetry_equiv_pos_site_id
_symmetry_equiv_pos_as_xyz
1 x,y,z
2 1/2-x,-y,1/2+z
3 -x,1/2+y,1/2-z
4 1/2+x,1/2-y,-z
5 z,x,y
6 1/2+z,1/2-x,-y
7 1/2-z,-x,1/2+y
8 -z,1/2+x,1/2-y
9 y,z,x
10 -y,1/2+z,1/2-x
11 1/2+y,1/2-z,-x
12 1/2-y,-z,1/2+x
13 1/4+y,1/4+x,1/4+z
14 1/4-y,3/4-x,3/4+z
15 3/4+y,1/4-x,3/4-z
16 3/4-y,3/4+x,1/4-z
17 1/4+x,1/4+z,1/4+y
18 3/4-x,3/4+z,1/4-y
19 1/4-x,3/4-z,3/4+y
20 3/4+x,1/4-z,3/4-y
21 1/4+z,1/4+y,1/4+x
22 3/4+z,1/4-y,3/4-x
23 3/4-z,3/4+y,1/4-x
24 1/4-z,3/4-y,3/4+x
25 1/2+x,1/2+y,1/2+z
26 -x,1/2-y,z
27 1/2-x,y,-z
28 x,-y,1/2-z
29 1/2+z,1/2+x,1/2+y
30 z,-x,1/2-y
31 -z,1/2-x,y
32 1/2-z,x,-y
33 1/2+y,1/2+z,1/2+x
34 1/2-y,z,-x
35 y,-z,1/2-x
36 -y,1/2-z,x
37 3/4+y,3/4+x,3/4+z
38 3/4-y,1/4-x,1/4+z
39 1/4+y,3/4-x,1/4-z
40 1/4-y,1/4+x,3/4-z
41 3/4+x,3/4+z,3/4+y
42 1/4-x,1/4+z,3/4-y
43 3/4-x,1/4-z,1/4+y
44 1/4+x,3/4-z,1/4-y
45 3/4+z,3/4+y,3/4+x
46 1/4+z,3/4-y,1/4-x
47 1/4-z,1/4+y,3/4-x
48 3/4-z,1/4-y,1/4+x
_cell_length_a 24.977(5)
_cell_length_b 24.977(5)
_cell_length_c 24.977(5)
_cell_angle_alpha 90
_cell_angle_beta 90
_cell_angle_gamma 90
_cell_formula_units_Z 12
loop_
_atom_type_symbol
_atom_type_radius_bond
C 0.68
H 0.23
N 0.68
Ni 1.24
O 0.68
P 1.05
loop_
_atom_site_label
_atom_site_type_symbol
_atom_site_fract_x
_atom_site_fract_y
_atom_site_fract_z
Ni1 Ni 0.93548(2) 0.43548(2) 0.06452(2)
O1 O 0.54443(15) 0.22683(18) 0.09005(13)
N1 N 0.85155(14) 0.44512(15) 0.06558(15)
N2 N 0.92885(14) 0.52005(14) 0.06284(13)
N3 N 0.78354(13) 0.50202(16) 0.06255(16)
H1 H 0.76640 0.53180 0.06080
N4 N 0.87251(16) 0.59040(14) 0.05589(14)
H2 H 0.84320 0.60820 0.05330
C1 C 0.92404(18) 0.61077(19) 0.05803(18)
C2 C 0.9582(2) 0.56651(18) 0.06250(19)
C3 C 1.0134(2) 0.5745(2) 0.0660(2)
H3 H 1.03730 0.54610 0.06910
C4 C 1.0305(3) 0.6270(2) 0.0645(3)
H4 H 1.06710 0.63350 0.06590
C5 C 0.9968(3) 0.6697(3) 0.0610(2)
H5 H 1.01080 0.70420 0.06110
C6 C 0.9418(3) 0.6627(2) 0.0573(2)
H6 H 0.91840 0.69150 0.05440
C7 C 0.87792(18) 0.53641(18) 0.05881(18)
C8 C 0.83695(16) 0.49584(19) 0.06116(18)
C9 C 0.80483(18) 0.4160(2) 0.06917(18)
C10 C 0.76148(17) 0.45248(18) 0.06719(19)
C11 C 0.7088(2) 0.4349(3) 0.0695(2)
H7 H 0.68010 0.45870 0.06850
C12 C 0.7011(2) 0.3811(3) 0.0733(2)
H8 H 0.66630 0.36800 0.07380
C13 C 0.7433(3) 0.3450(3) 0.0764(2)
H9 H 0.73600 0.30870 0.07990
C14 C 0.7960(2) 0.3618(2) 0.0743(2)
H10 H 0.82420 0.33760 0.07640
P1 P 0.50000 0.25000 0.12500
O1O O 0.52317(15) 0.29443(18) 0.15995(13)
O1Y O 0.45557(15) 0.27317(18) 0.09005(13)
O1LA O 0.47683(15) 0.20557(18) 0.15995(13)
N1G N 0.93442(14) 0.35155(15) 0.05488(15)
N1J N 0.94512(14) 0.43442(15) 0.14845(15)
N2G N 0.93716(14) 0.42885(14) -0.02005(13)
N2J N 1.02005(14) 0.43716(14) 0.07115(13)
N3G N 0.93745(13) 0.28354(16) -0.00202(16)
N3J N 1.00202(13) 0.43745(16) 0.21646(16)
H1G H 0.93920 0.26640 -0.03180
H1J H 1.03180 0.43920 0.23360
N4G N 0.94411(16) 0.37251(14) -0.09040(14)
N4J N 1.09040(16) 0.44411(14) 0.12749(14)
H2G H 0.94670 0.34320 -0.10820
H2J H 1.10820 0.44670 0.15680
C1G C 0.94197(18) 0.42404(19) -0.11077(18)
C1J C 1.11077(18) 0.44197(19) 0.07596(18)
C2G C 0.9375(2) 0.45820(18) -0.06651(19)
C2J C 1.06651(20) 0.43750(18) 0.04180(19)
C3G C 0.9340(2) 0.5134(2) -0.0745(2)
C3J C 1.0745(2) 0.4340(2) -0.0134(2)
H3G H 0.93090 0.53730 -0.04610
H3J H 1.04610 0.43090 -0.03730
C4G C 0.9355(3) 0.5305(2) -0.1270(3)
C4J C 1.1270(3) 0.4355(2) -0.0305(3)
H4G H 0.93410 0.56710 -0.13350
H4J H 1.13350 0.43410 -0.06710
C5G C 0.9390(3) 0.4968(3) -0.1697(2)
C5J C 1.1697(3) 0.4390(3) 0.0032(2)
H5G H 0.93890 0.51080 -0.20420
H5J H 1.20420 0.43890 -0.01080
C6G C 0.9427(3) 0.4418(2) -0.1627(2)
C6J C 1.1627(3) 0.4427(2) 0.0582(2)
H6G H 0.94560 0.41840 -0.19150
H6J H 1.19150 0.44560 0.08160
C7G C 0.94119(18) 0.37792(18) -0.03641(18)
C7J C 1.03641(18) 0.44119(18) 0.12208(18)
C8G C 0.93884(16) 0.33695(19) 0.00416(18)
C8J C 0.99584(16) 0.43884(19) 0.16305(18)
C9G C 0.93083(18) 0.30483(20) 0.08400(18)
C9J C 0.91600(18) 0.43083(20) 0.19517(18)
C10G C 0.93281(17) 0.26148(18) 0.04752(19)
C10J C 0.95248(17) 0.43281(18) 0.23852(19)
C11G C 0.9305(2) 0.2088(3) 0.0651(2)
C11J C 0.9349(2) 0.4305(3) 0.2912(2)
H7G H 0.93150 0.18010 0.04130
H7J H 0.95870 0.43150 0.31990
C12G C 0.9267(2) 0.2011(3) 0.1189(2)
C12J C 0.8811(2) 0.4267(3) 0.2989(2)
H8G H 0.92620 0.16630 0.13200
H8J H 0.86800 0.42620 0.33370
C13G C 0.9236(3) 0.2433(3) 0.1550(2)
C13J C 0.8450(3) 0.4236(3) 0.2567(2)
H9G H 0.92010 0.23600 0.19130
H9J H 0.80870 0.42010 0.26400
C14G C 0.9257(2) 0.2960(2) 0.1382(2)
C14J C 0.8618(2) 0.4257(2) 0.2040(2)
H10G H 0.92360 0.32420 0.16240
H10J H 0.83760 0.42360 0.17580
#END

data_CSD_CIF_CAFHEX
_audit_creation_date 2002-03-27
_audit_creation_method CSD-ConQuest-V1
_database_code_CSD CAFHEX
_database_code_depnum_ccdc_archive 'CCDC 179078'
_chemical_formula_sum 'C18 H26 Co1 N10 O2.5'
_chemical_formula_moiety
;
C18 H21 Co1 N10,2.5(H2 O1)
;
_journal_coden_Cambridge 4
_journal_volume 124
_journal_year 2002
_journal_page_first 629
_journal_name_full 'J.Am.Chem.Soc. '
loop_
_publ_author_name
"I.Katsuki"
"Y.Motoda"
"Y.Sunatsuki"
"N.Matsumoto"
"T.Nakashima"
"M.Kojima"
_chemical_name_systematic
;
(tris(2-(((Imidazolate-4-yl)methylene)amino)ethyl)amine)-cobalt(iii) hydrate
;
_chemical_melting_point 573.15
_cell_volume   8546.597
_exptl_crystal_colour 'ruby'
_exptl_crystal_density_diffrn 1.496
_exptl_special_details
;
Melts above 573.15K

;
_exptl_crystal_description 'prismatic'
_diffrn_ambient_temperature 293.2
#These two values have been output from a single CSD field.
_refine_ls_R_factor_gt 0.037
_refine_ls_wR_factor_gt 0.037
_symmetry_cell_setting cubic
_symmetry_space_group_name_H-M 'I -4 3 d'
_symmetry_Int_Tables_number 220
loop_
_symmetry_equiv_pos_site_id
_symmetry_equiv_pos_as_xyz
1 x,y,z
2 z,x,y
3 y,z,x
4 1/2+x,1/2-y,-z
5 1/2+z,1/2-x,-y
6 1/2+y,1/2-z,-x
7 -x,1/2+y,1/2-z
8 -z,1/2+x,1/2-y
9 -y,1/2+z,1/2-x
10 1/2-x,-y,1/2+z
11 1/2-z,-x,1/2+y
12 1/2-y,-z,1/2+x
13 1/4+x,1/4+z,1/4+y
14 1/4+y,1/4+x,1/4+z
15 1/4+z,1/4+y,1/4+x
16 -1/4+x,1/4-z,-1/4-y
17 -1/4+y,1/4-x,-1/4-z
18 -1/4+z,1/4-y,-1/4-x
19 -1/4-x,-1/4+z,1/4-y
20 -1/4-y,-1/4+x,1/4-z
21 -1/4-z,-1/4+y,1/4-x
22 1/4-x,-1/4-z,-1/4+y
23 1/4-y,-1/4-x,-1/4+z
24 1/4-z,-1/4-y,-1/4+x
25 1/2+x,1/2+y,1/2+z
26 1/2+z,1/2+x,1/2+y
27 1/2+y,1/2+z,1/2+x
28 x,-y,1/2-z
29 z,-x,1/2-y
30 y,-z,1/2-x
31 1/2-x,y,-z
32 1/2-z,x,-y
33 1/2-y,z,-x
34 -x,1/2-y,z
35 -z,1/2-x,y
36 -y,1/2-z,x
37 -1/4+x,-1/4+z,-1/4+y
38 -1/4+y,-1/4+x,-1/4+z
39 -1/4+z,-1/4+y,-1/4+x
40 1/4+x,-1/4-z,1/4-y
41 1/4+y,-1/4-x,1/4-z
42 1/4+z,-1/4-y,1/4-x
43 1/4-x,1/4+z,-1/4-y
44 1/4-y,1/4+x,-1/4-z
45 1/4-z,1/4+y,-1/4-x
46 -1/4-x,1/4-z,1/4+y
47 -1/4-y,1/4-x,1/4+z
48 -1/4-z,1/4-y,1/4+x
_cell_length_a 20.4455(9)
_cell_length_b 20.4455(9)
_cell_length_c 20.4455(9)
_cell_angle_alpha 90
_cell_angle_beta 90
_cell_angle_gamma 90
_cell_formula_units_Z 16
loop_
_atom_type_symbol
_atom_type_radius_bond
C 0.68
H 0.23
Co 1.33
N 0.68
O 0.68
loop_
_atom_site_label
_atom_site_type_symbol
_atom_site_fract_x
_atom_site_fract_y
_atom_site_fract_z
Co1 Co 0.09542(3) 0.09540 0.09540
O1 O -0.0173(2) 0.1940(2) 0.3095(3)
N1 N 0.1931(1) 0.19310 0.19310
N2 N 0.0883(2) 0.0897(2) 0.1906(1)
N3 N 0.0023(2) 0.0918(2) 0.1032(2)
N4 N -0.1081(2) 0.0886(2) 0.0996(3)
C1 C 0.1717(2) 0.1580(2) 0.2503(2)
C2 C 0.1445(2) 0.0881(2) 0.2352(2)
C3 C 0.0302(2) 0.0850(2) 0.2121(2)
C4 C -0.0199(2) 0.0871(2) 0.1657(2)
C5 C -0.0878(2) 0.0825(2) 0.1638(2)
C6 C -0.0532(2) 0.0943(2) 0.0674(2)
H1 H 0.21130 0.15580 0.28200
H2 H 0.14100 0.18340 0.27530
H3 H 0.13450 0.06770 0.27870
H4 H 0.18180 0.06260 0.21950
H5 H 0.01970 0.08160 0.25960
H6 H -0.11800 0.07740 0.20470
H7 H -0.05270 0.10000 0.01720
C1A C 0.2503(2) 0.1717(2) 0.1580(2)
C2A C 0.2352(2) 0.1445(2) 0.0881(2)
N2A N 0.1906(2) 0.0883(2) 0.0897(1)
N2B N 0.0897(2) 0.1906(2) 0.0883(1)
C2B C 0.0881(2) 0.2352(2) 0.1445(2)
C1B C 0.1580(2) 0.2503(2) 0.1717(2)
H1B H 0.15580 0.28200 0.21130
H2B H 0.18340 0.27530 0.14100
H3B H 0.06770 0.27870 0.13450
H4B H 0.06260 0.21950 0.18180
C3B C 0.0850(2) 0.2121(2) 0.0302(2)
C4B C 0.0871(2) 0.1657(2) -0.0199(2)
N3B N 0.0918(2) 0.1032(2) 0.0023(2)
N3A N 0.1032(2) 0.0023(2) 0.0918(2)
C4A C 0.1657(2) -0.0199(2) 0.0871(2)
C3A C 0.2121(2) 0.0302(2) 0.0850(2)
H5A H 0.25960 0.01970 0.08160
C5A C 0.1638(2) -0.0878(2) 0.0825(2)
N4A N 0.0996(2) -0.1081(2) 0.0886(3)
C6A C 0.0674(2) -0.0532(2) 0.0943(2)
H7A H 0.01720 -0.05270 0.10000
H6A H 0.20470 -0.11800 0.07740
C6B C 0.0943(2) 0.0674(2) -0.0532(2)
N4B N 0.0886(2) 0.0996(2) -0.1081(3)
C5B C 0.0825(2) 0.1638(2) -0.0878(2)
H6B H 0.07740 0.20470 -0.11800
H7B H 0.10000 0.01720 -0.05270
H5B H 0.08160 0.25960 0.01970
H3A H 0.27870 0.13450 0.06770
H4A H 0.21950 0.18180 0.06260
H1A H 0.28200 0.21130 0.15580
H2A H 0.27530 0.14100 0.18340
#END

data_CSD_CIF_DEWJUK02
_audit_creation_date 2010-10-20
_audit_creation_method CSD-ConQuest-V1
_database_code_CSD DEWJUK02
_database_code_depnum_ccdc_archive 'CCDC 777562'
_chemical_formula_sum 'C72 H60 Cu4 I4 P4'
_chemical_formula_moiety
;
C72 H60 Cu4 I4 P4
;
_journal_coden_Cambridge 182
_journal_volume 46
_journal_year 2010
_journal_page_first 6302
_journal_name_full 'Chem.Commun. '
loop_
_publ_author_name
"H.Kitagawa"
"Y.Ozawa"
"K.Toriumi"
_chemical_name_systematic
;
tetrakis((\m~3~-Iodo)-(triphenylphosphine))-tetra-copper(i)
;
_cell_volume  26955.205
_exptl_crystal_colour 'colorless'
_exptl_crystal_density_diffrn 1.785
_exptl_special_details
;
cubic polymorph

;
_exptl_crystal_description 'block'
_exptl_crystal_preparation 'toluene/diethyl ether'
_diffrn_ambient_temperature 203
#These two values have been output from a single CSD field.
_refine_ls_R_factor_gt 0.0383
_refine_ls_wR_factor_gt 0.0383
_symmetry_cell_setting cubic
_symmetry_space_group_name_H-M 'I -4 3 d'
_symmetry_Int_Tables_number 220
loop_
_symmetry_equiv_pos_site_id
_symmetry_equiv_pos_as_xyz
1 x,y,z
2 x,-y,1/2-z
3 -x,1/2-y,z
4 -x,1/2+y,1/2-z
5 1/4+y,3/4-x,1/4-z
6 1/4-y,3/4-x,3/4+z
7 3/4-y,3/4+x,1/4-z
8 3/4+y,3/4+x,3/4+z
9 y,z,x
10 -y,1/2-z,x
11 y,-z,1/2-x
12 -y,1/2+z,1/2-x
13 1/4+z,3/4-y,1/4-x
14 1/4+z,1/4+y,1/4+x
15 3/4-z,3/4+y,1/4-x
16 3/4-z,1/4-y,1/4+x
17 z,x,y
18 1/2-z,x,-y
19 -z,1/2-x,y
20 1/2+z,1/2-x,-y
21 3/4+x,3/4+z,3/4+y
22 3/4+x,1/4-z,3/4-y
23 3/4-x,3/4+z,1/4-y
24 1/4-x,3/4-z,3/4+y
25 1/2+x,1/2+y,1/2+z
26 1/2+x,1/2-y,-z
27 1/2-x,-y,1/2+z
28 1/2-x,y,-z
29 3/4+y,1/4-x,3/4-z
30 3/4-y,1/4-x,1/4+z
31 1/4-y,1/4+x,3/4-z
32 1/4+y,1/4+x,1/4+z
33 1/2+y,1/2+z,1/2+x
34 1/2-y,-z,1/2+x
35 1/2+y,1/2-z,-x
36 1/2-y,z,-x
37 3/4+z,1/4-y,3/4-x
38 3/4+z,3/4+y,3/4+x
39 1/4-z,1/4+y,3/4-x
40 1/4-z,3/4-y,3/4+x
41 1/2+z,1/2+x,1/2+y
42 -z,1/2+x,1/2-y
43 1/2-z,-x,1/2+y
44 z,-x,1/2-y
45 1/4+x,1/4+z,1/4+y
46 1/4+x,3/4-z,1/4-y
47 1/4-x,1/4+z,3/4-y
48 3/4-x,1/4-z,1/4+y
_cell_length_a 29.9834(5)
_cell_length_b 29.9834(5)
_cell_length_c 29.9834(5)
_cell_angle_alpha 90
_cell_angle_beta 90
_cell_angle_gamma 90
_cell_formula_units_Z 16
loop_
_atom_type_symbol
_atom_type_radius_bond
C 0.68
H 0.23
Cu 1.23
I 1.40
P 1.05
loop_
_atom_site_label
_atom_site_type_symbol
_atom_site_fract_x
_atom_site_fract_y
_atom_site_fract_z
I1 I 0.991866(19) 0.037883(18) 0.921517(18)
I2 I 1.054593(19) 0.054593(19) 1.054593(19)
Cu1 Cu 0.96282(4) -0.03718(4) 0.96282(4)
Cu2 Cu 1.05483(4) 0.01163(4) 0.97635(4)
P1 P 0.91932(7) -0.08068(7) 0.91932(7)
P2 P 1.12626(7) 0.00796(8) 0.95360(7)
C1 C 1.1748(3) 0.0055(4) 1.0329(3)
H1 H 1.16940 0.03640 1.03430
C2 C 1.1567(3) 0.0597(3) 0.9419(3)
C3 C 0.8594(3) -0.0699(3) 0.9240(3)
C4 C 0.8268(3) -0.1019(3) 0.9167(3)
H2 H 0.83530 -0.13060 0.90750
C5 C 1.1380(3) -0.0241(3) 0.9026(3)
C6 C 0.8459(3) -0.0277(3) 0.9365(3)
H3 H 0.86740 -0.00540 0.94100
C7 C 1.1335(4) 0.0960(3) 0.9261(3)
H4 H 1.10220 0.09530 0.92450
C8 C 1.1598(3) -0.0192(3) 0.9964(3)
C9 C 1.1885(5) -0.0547(6) 0.8487(5)
H5 H 1.21780 -0.06050 0.83940
C10 C 1.2031(3) 0.0621(4) 0.9456(4)
H6 H 1.21920 0.03820 0.95800
C11 C 1.1111(5) -0.0597(4) 0.8367(4)
H7 H 1.08690 -0.06880 0.81900
C12 C 1.1975(4) -0.0154(4) 1.0668(3)
H8 H 1.20810 0.00150 1.09090
C13 C 1.2048(4) -0.0604(5) 1.0660(4)
H9 H 1.22030 -0.07420 1.08950
C14 C 0.8005(4) -0.0175(4) 0.9425(4)
H10 H 0.79160 0.01130 0.95110
C15 C 1.1034(4) -0.0383(3) 0.8767(3)
H11 H 1.07400 -0.03330 0.88610
C16 C 1.1536(5) -0.0676(4) 0.8227(4)
H12 H 1.15880 -0.08190 0.79520
C17 C 0.7819(3) -0.0925(4) 0.9227(4)
H13 H 0.76020 -0.11460 0.91800
C18 C 0.7697(3) -0.0505(4) 0.9356(4)
H14 H 0.73930 -0.04400 0.93980
C19 C 1.1894(4) -0.0858(4) 1.0305(5)
H15 H 1.19420 -0.11680 1.02990
C20 C 1.2251(4) 0.0996(4) 0.9311(5)
H16 H 1.25640 0.10060 0.93250
C21 C 1.1569(5) 0.1339(4) 0.9123(4)
H17 H 1.14130 0.15870 0.90140
C22 C 1.1670(4) -0.0652(3) 0.9960(4)
H18 H 1.15640 -0.08240 0.97200
C23 C 1.1809(4) -0.0331(6) 0.8888(5)
H19 H 1.20520 -0.02450 0.90660
C24 C 1.2024(5) 0.1350(4) 0.9148(4)
H20 H 1.21800 0.16050 0.90510
I1P I 0.921517(19) -0.008134(18) 1.037883(18)
I1H I 1.037883(19) -0.078483(18) 0.991866(18)
Cu2P Cu 0.97635(4) 0.05483(4) 1.01163(4)
Cu2H Cu 1.01163(4) -0.02365(4) 1.05483(4)
P2P P 0.95360(7) 0.12626(8) 1.00796(7)
P2H P 1.00796(7) -0.04640(8) 1.12626(7)
C1P C 1.0329(3) 0.1748(4) 1.0055(3)
C1H C 1.0055(3) 0.0329(4) 1.1748(3)
H1P H 1.03430 0.16940 1.03640
H1H H 1.03640 0.03430 1.16940
C2P C 0.9419(3) 0.1567(3) 1.0597(3)
C2H C 1.0597(3) -0.0581(3) 1.1567(3)
C3H C 0.9301(3) -0.0760(3) 0.8594(3)
C3P C 0.9240(3) -0.1406(3) 0.9301(3)
C4H C 0.8981(3) -0.0833(3) 0.8268(3)
C4P C 0.9167(3) -0.1732(3) 0.8981(3)
H2H H 0.86940 -0.09250 0.83530
H2P H 0.90750 -0.16470 0.86940
C5P C 0.9026(3) 0.1380(3) 0.9759(3)
C5H C 0.9759(3) -0.0974(3) 1.1380(3)
C6H C 0.9723(3) -0.0635(3) 0.8459(3)
C6P C 0.9365(3) -0.1541(3) 0.9723(3)
H3H H 0.99460 -0.05900 0.86740
H3P H 0.94100 -0.13260 0.99460
C7P C 0.9261(4) 0.1335(3) 1.0960(3)
C7H C 1.0960(4) -0.0739(3) 1.1335(3)
H4P H 0.92450 0.10220 1.09530
H4H H 1.09530 -0.07550 1.10220
C8P C 0.9964(3) 0.1598(3) 0.9808(3)
C8H C 0.9808(3) -0.0036(3) 1.1598(3)
C9P C 0.8487(5) 0.1885(6) 0.9453(5)
C9H C 0.9453(5) -0.1513(6) 1.1885(5)
H5P H 0.83940 0.21780 0.93950
H5H H 0.93950 -0.16060 1.21780
C10P C 0.9456(3) 0.2031(4) 1.0621(4)
C10H C 1.0621(3) -0.0544(4) 1.2031(4)
H6P H 0.95800 0.21920 1.03820
H6H H 1.03820 -0.04200 1.21920
C11P C 0.8367(5) 0.1111(4) 0.9403(4)
C11H C 0.9403(5) -0.1633(4) 1.1111(4)
H7P H 0.81900 0.08690 0.93120
H7H H 0.93120 -0.18100 1.08690
C12P C 1.0668(4) 0.1975(4) 0.9846(3)
C12H C 0.9846(4) 0.0668(4) 1.1975(3)
H8P H 1.09090 0.20810 1.00150
H8H H 1.00150 0.09090 1.20810
C13P C 1.0660(4) 0.2048(5) 0.9396(4)
C13H C 0.9396(4) 0.0660(5) 1.2048(4)
H9P H 1.08950 0.22030 0.92580
H9H H 0.92580 0.08950 1.22030
C14H C 0.9825(4) -0.0575(4) 0.8005(4)
C14P C 0.9425(4) -0.1995(4) 0.9825(4)
H10H H 1.01130 -0.04890 0.79160
H10P H 0.95110 -0.20840 1.01130
C15P C 0.8767(4) 0.1034(3) 0.9617(3)
C15H C 0.9617(4) -0.1233(3) 1.1034(3)
H11P H 0.88610 0.07400 0.96670
H11H H 0.96670 -0.11390 1.07400
C16P C 0.8227(5) 0.1536(4) 0.9324(4)
C16H C 0.9324(5) -0.1773(4) 1.1536(4)
H12P H 0.79520 0.15880 0.91810
H12H H 0.91810 -0.20480 1.15880
C17H C 0.9075(3) -0.0773(4) 0.7819(4)
C17P C 0.9227(3) -0.2181(4) 0.9075(4)
H13H H 0.88540 -0.08200 0.76020
H13P H 0.91800 -0.23980 0.88540
C18H C 0.9495(3) -0.0644(4) 0.7697(4)
C18P C 0.9356(3) -0.2303(4) 0.9495(4)
H14H H 0.95600 -0.06020 0.73930
H14P H 0.93980 -0.26070 0.95600
C19P C 1.0305(4) 0.1894(4) 0.9142(5)
C19H C 0.9142(4) 0.0305(4) 1.1894(5)
H15P H 1.02990 0.19420 0.88320
H15H H 0.88320 0.02990 1.19420
C20P C 0.9311(4) 0.2251(4) 1.0996(5)
C20H C 1.0996(4) -0.0689(4) 1.2251(5)
H16P H 0.93250 0.25640 1.10060
H16H H 1.10060 -0.06750 1.25640
C21P C 0.9123(5) 0.1569(4) 1.1339(4)
C21H C 1.1339(5) -0.0877(4) 1.1569(4)
H17P H 0.90140 0.14130 1.15870
H17H H 1.15870 -0.09860 1.14130
C22P C 0.9960(4) 0.1670(3) 0.9348(4)
C22H C 0.9348(4) -0.0040(3) 1.1670(4)
H18P H 0.97200 0.15640 0.91760
H18H H 0.91760 -0.02800 1.15640
C23P C 0.8888(4) 0.1809(6) 0.9669(5)
C23H C 0.9669(4) -0.1112(6) 1.1809(5)
H19P H 0.90660 0.20520 0.97550
H19H H 0.97550 -0.09340 1.20520
C24P C 0.9148(5) 0.2024(4) 1.1350(4)
C24H C 1.1350(5) -0.0852(4) 1.2024(4)
H20P H 0.90510 0.21800 1.16050
H20H H 1.16050 -0.09490 1.21800
#END

data_CSD_CIF_DEWJUK03
_audit_creation_date 2010-10-20
_audit_creation_method CSD-ConQuest-V1
_database_code_CSD DEWJUK03
_database_code_depnum_ccdc_archive 'CCDC 777563'
_chemical_formula_sum 'C72 H60 Cu4 I4 P4'
_chemical_formula_moiety
;
C72 H60 Cu4 I4 P4
;
_journal_coden_Cambridge 182
_journal_volume 46
_journal_year 2010
_journal_page_first 6302
_journal_name_full 'Chem.Commun. '
loop_
_publ_author_name
"H.Kitagawa"
"Y.Ozawa"
"K.Toriumi"
_chemical_name_systematic
;
tetrakis((\m~3~-Iodo)-(triphenylphosphine))-tetra-copper(i)
;
_cell_volume  26746.458
_exptl_crystal_colour 'colorless'
_exptl_crystal_density_diffrn 1.799
_exptl_special_details
;
cubic polymorph

;
_exptl_crystal_description 'block'
_exptl_crystal_preparation 'toluene/diethyl ether'
_diffrn_ambient_temperature 153
#These two values have been output from a single CSD field.
_refine_ls_R_factor_gt 0.0354
_refine_ls_wR_factor_gt 0.0354
_symmetry_cell_setting cubic
_symmetry_space_group_name_H-M 'I -4 3 d'
_symmetry_Int_Tables_number 220
loop_
_symmetry_equiv_pos_site_id
_symmetry_equiv_pos_as_xyz
1 x,y,z
2 x,-y,1/2-z
3 -x,1/2-y,z
4 -x,1/2+y,1/2-z
5 1/4+y,3/4-x,1/4-z
6 1/4-y,3/4-x,3/4+z
7 3/4-y,3/4+x,1/4-z
8 3/4+y,3/4+x,3/4+z
9 y,z,x
10 -y,1/2-z,x
11 y,-z,1/2-x
12 -y,1/2+z,1/2-x
13 1/4+z,3/4-y,1/4-x
14 1/4+z,1/4+y,1/4+x
15 3/4-z,3/4+y,1/4-x
16 3/4-z,1/4-y,1/4+x
17 z,x,y
18 1/2-z,x,-y
19 -z,1/2-x,y
20 1/2+z,1/2-x,-y
21 3/4+x,3/4+z,3/4+y
22 3/4+x,1/4-z,3/4-y
23 3/4-x,3/4+z,1/4-y
24 1/4-x,3/4-z,3/4+y
25 1/2+x,1/2+y,1/2+z
26 1/2+x,1/2-y,-z
27 1/2-x,-y,1/2+z
28 1/2-x,y,-z
29 3/4+y,1/4-x,3/4-z
30 3/4-y,1/4-x,1/4+z
31 1/4-y,1/4+x,3/4-z
32 1/4+y,1/4+x,1/4+z
33 1/2+y,1/2+z,1/2+x
34 1/2-y,-z,1/2+x
35 1/2+y,1/2-z,-x
36 1/2-y,z,-x
37 3/4+z,1/4-y,3/4-x
38 3/4+z,3/4+y,3/4+x
39 1/4-z,1/4+y,3/4-x
40 1/4-z,3/4-y,3/4+x
41 1/2+z,1/2+x,1/2+y
42 -z,1/2+x,1/2-y
43 1/2-z,-x,1/2+y
44 z,-x,1/2-y
45 1/4+x,1/4+z,1/4+y
46 1/4+x,3/4-z,1/4-y
47 1/4-x,1/4+z,3/4-y
48 3/4-x,1/4-z,1/4+y
_cell_length_a 29.9058(5)
_cell_length_b 29.9058(5)
_cell_length_c 29.9058(5)
_cell_angle_alpha 90
_cell_angle_beta 90
_cell_angle_gamma 90
_cell_formula_units_Z 16
loop_
_atom_type_symbol
_atom_type_radius_bond
C 0.68
H 0.23
Cu 1.22
I 1.40
P 1.05
loop_
_atom_site_label
_atom_site_type_symbol
_atom_site_fract_x
_atom_site_fract_y
_atom_site_fract_z
I1 I 0.991680(19) 0.037969(18) 0.921228(18)
I2 I 1.054878(19) 0.054878(19) 1.054878(19)
Cu1 Cu 0.96292(4) -0.03708(4) 0.96292(4)
Cu2 Cu 1.05454(4) 0.01161(4) 0.97650(4)
P1 P 0.91935(7) -0.08065(7) 0.91935(7)
P2 P 1.12603(7) 0.00777(8) 0.95370(7)
C1 C 1.1743(3) 0.0052(4) 1.0333(3)
H1 H 1.16820 0.03640 1.03480
C2 C 1.1567(3) 0.0595(3) 0.9424(3)
C3 C 0.8588(3) -0.0701(3) 0.9240(3)
C4 C 0.8266(3) -0.1020(3) 0.9168(3)
H2 H 0.83540 -0.13130 0.90810
C5 C 1.1382(3) -0.0245(3) 0.9028(3)
C6 C 0.8456(3) -0.0280(3) 0.9370(4)
H3 H 0.86740 -0.00550 0.94220
C7 C 1.1333(4) 0.0961(4) 0.9261(3)
H4 H 1.10160 0.09560 0.92440
C8 C 1.1597(3) -0.0199(3) 0.9966(3)
C9 C 1.1895(5) -0.0554(6) 0.8489(5)
H5 H 1.21930 -0.06160 0.83980
C10 C 1.2035(3) 0.0615(4) 0.9456(4)
H6 H 1.21970 0.03680 0.95740
C11 C 1.1107(5) -0.0604(4) 0.8363(4)
H7 H 1.08640 -0.07010 0.81840
C12 C 1.1977(4) -0.0157(4) 1.0672(3)
H8 H 1.20890 0.00150 1.09140
C13 C 1.2051(4) -0.0608(5) 1.0665(4)
H9 H 1.22090 -0.07480 1.09020
C14 C 0.8006(4) -0.0182(4) 0.9426(4)
H10 H 0.79170 0.01110 0.95110
C15 C 1.1028(4) -0.0387(3) 0.8762(3)
H11 H 1.07300 -0.03350 0.88560
C16 C 1.1537(5) -0.0680(4) 0.8225(4)
H12 H 1.15900 -0.08210 0.79450
C17 C 0.7814(3) -0.0927(4) 0.9219(4)
H13 H 0.75950 -0.11500 0.91590
C18 C 0.7689(4) -0.0505(4) 0.9358(4)
H14 H 0.73820 -0.04390 0.94080
C19 C 1.1895(4) -0.0859(4) 1.0308(5)
H15 H 1.19440 -0.11720 1.03000
C20 C 1.2260(4) 0.0991(4) 0.9317(5)
H16 H 1.25760 0.10000 0.93370
C21 C 1.1572(5) 0.1339(4) 0.9121(4)
H17 H 1.14140 0.15890 0.90060
C22 C 1.1668(4) -0.0653(3) 0.9965(4)
H18 H 1.15580 -0.08280 0.97230
C23 C 1.1811(4) -0.0335(6) 0.8892(5)
H19 H 1.20550 -0.02470 0.90760
C24 C 1.2030(5) 0.1356(4) 0.9147(4)
H20 H 1.21880 0.16140 0.90510
I1P I 0.921228(19) -0.008320(18) 1.037969(18)
I1H I 1.037969(19) -0.078772(18) 0.991680(18)
Cu2P Cu 0.97650(4) 0.05454(4) 1.01161(4)
Cu2H Cu 1.01161(4) -0.02350(4) 1.05454(4)
P2P P 0.95370(7) 0.12603(8) 1.00777(7)
P2H P 1.00777(7) -0.04630(8) 1.12603(7)
C1P C 1.0333(3) 0.1743(4) 1.0052(3)
C1H C 1.0052(3) 0.0333(4) 1.1743(3)
H1P H 1.03480 0.16820 1.03640
H1H H 1.03640 0.03480 1.16820
C2P C 0.9424(3) 0.1567(3) 1.0595(3)
C2H C 1.0595(3) -0.0576(3) 1.1567(3)
C3H C 0.9299(3) -0.0760(3) 0.8588(3)
C3P C 0.9240(3) -0.1412(3) 0.9299(3)
C4H C 0.8980(3) -0.0832(3) 0.8266(3)
C4P C 0.9168(3) -0.1734(3) 0.8980(3)
H2H H 0.86870 -0.09190 0.83540
H2P H 0.90810 -0.16460 0.86870
C5P C 0.9028(3) 0.1382(3) 0.9755(3)
C5H C 0.9755(3) -0.0972(3) 1.1382(3)
C6H C 0.9720(3) -0.0630(3) 0.8456(4)
C6P C 0.9370(3) -0.1544(3) 0.9720(4)
H3H H 0.99450 -0.05780 0.86740
H3P H 0.94220 -0.13260 0.99450
C7P C 0.9261(4) 0.1333(4) 1.0961(3)
C7H C 1.0961(4) -0.0739(4) 1.1333(3)
H4P H 0.92440 0.10160 1.09560
H4H H 1.09560 -0.07560 1.10160
C8P C 0.9966(3) 0.1597(3) 0.9801(3)
C8H C 0.9801(3) -0.0034(3) 1.1597(3)
C9P C 0.8489(5) 0.1895(6) 0.9446(5)
C9H C 0.9446(5) -0.1511(6) 1.1895(5)
H5P H 0.83980 0.21930 0.93840
H5H H 0.93840 -0.16020 1.21930
C10P C 0.9456(3) 0.2035(4) 1.0615(4)
C10H C 1.0615(3) -0.0544(4) 1.2035(4)
H6P H 0.95740 0.21970 1.03680
H6H H 1.03680 -0.04260 1.21970
C11P C 0.8363(5) 0.1107(4) 0.9396(4)
C11H C 0.9396(5) -0.1637(4) 1.1107(4)
H7P H 0.81840 0.08640 0.92990
H7H H 0.92990 -0.18160 1.08640
C12P C 1.0672(4) 0.1977(4) 0.9843(3)
C12H C 0.9843(4) 0.0672(4) 1.1977(3)
H8P H 1.09140 0.20890 1.00150
H8H H 1.00150 0.09140 1.20890
C13P C 1.0665(4) 0.2051(5) 0.9392(4)
C13H C 0.9392(4) 0.0665(5) 1.2051(4)
H9P H 1.09020 0.22090 0.92520
H9H H 0.92520 0.09020 1.22090
C14H C 0.9818(4) -0.0574(4) 0.8006(4)
C14P C 0.9426(4) -0.1994(4) 0.9818(4)
H10H H 1.01110 -0.04890 0.79170
H10P H 0.95110 -0.20830 1.01110
C15P C 0.8762(4) 0.1028(3) 0.9613(3)
C15H C 0.9613(4) -0.1238(3) 1.1028(3)
H11P H 0.88560 0.07300 0.96650
H11H H 0.96650 -0.11440 1.07300
C16P C 0.8225(5) 0.1537(4) 0.9320(4)
C16H C 0.9320(5) -0.1775(4) 1.1537(4)
H12P H 0.79450 0.15900 0.91790
H12H H 0.91790 -0.20550 1.15900
C17H C 0.9073(3) -0.0781(4) 0.7814(4)
C17P C 0.9219(3) -0.2186(4) 0.9073(4)
H13H H 0.88500 -0.08410 0.75950
H13P H 0.91590 -0.24050 0.88500
C18H C 0.9495(4) -0.0642(4) 0.7689(4)
C18P C 0.9358(4) -0.2311(4) 0.9495(4)
H14H H 0.95610 -0.05920 0.73820
H14P H 0.94080 -0.26180 0.95610
C19P C 1.0308(4) 0.1895(4) 0.9141(5)
C19H C 0.9141(4) 0.0308(4) 1.1895(5)
H15P H 1.03000 0.19440 0.88280
H15H H 0.88280 0.03000 1.19440
C20P C 0.9317(4) 0.2260(4) 1.0991(5)
C20H C 1.0991(4) -0.0683(4) 1.2260(5)
H16P H 0.93370 0.25760 1.10000
H16H H 1.10000 -0.06630 1.25760
C21P C 0.9121(5) 0.1572(4) 1.1339(4)
C21H C 1.1339(5) -0.0879(4) 1.1572(4)
H17P H 0.90060 0.14140 1.15890
H17H H 1.15890 -0.09940 1.14140
C22P C 0.9965(4) 0.1668(3) 0.9347(4)
C22H C 0.9347(4) -0.0035(3) 1.1668(4)
H18P H 0.97230 0.15580 0.91720
H18H H 0.91720 -0.02770 1.15580
C23P C 0.8892(4) 0.1811(6) 0.9665(5)
C23H C 0.9665(4) -0.1108(6) 1.1811(5)
H19P H 0.90760 0.20550 0.97530
H19H H 0.97530 -0.09240 1.20550
C24P C 0.9147(5) 0.2030(4) 1.1356(4)
C24H C 1.1356(5) -0.0853(4) 1.2030(4)
H20P H 0.90510 0.21880 1.16140
H20H H 1.16140 -0.09490 1.21880
#END

data_CSD_CIF_DEWJUK04
_audit_creation_date 2010-10-20
_audit_creation_method CSD-ConQuest-V1
_database_code_CSD DEWJUK04
_database_code_depnum_ccdc_archive 'CCDC 777564'
_chemical_formula_sum 'C72 H60 Cu4 I4 P4'
_chemical_formula_moiety
;
C72 H60 Cu4 I4 P4
;
_journal_coden_Cambridge 182
_journal_volume 46
_journal_year 2010
_journal_page_first 6302
_journal_name_full 'Chem.Commun. '
loop_
_publ_author_name
"H.Kitagawa"
"Y.Ozawa"
"K.Toriumi"
_chemical_name_systematic
;
tetrakis((\m~3~-Iodo)-(triphenylphosphine))-tetra-copper(i)
;
_cell_volume  26552.406
_exptl_crystal_colour 'colorless'
_exptl_crystal_density_diffrn 1.812
_exptl_special_details
;
cubic polymorph

;
_exptl_crystal_description 'block'
_exptl_crystal_preparation 'toluene/diethyl ether'
_diffrn_ambient_temperature 105
#These two values have been output from a single CSD field.
_refine_ls_R_factor_gt 0.0295
_refine_ls_wR_factor_gt 0.0295
_symmetry_cell_setting cubic
_symmetry_space_group_name_H-M 'I -4 3 d'
_symmetry_Int_Tables_number 220
loop_
_symmetry_equiv_pos_site_id
_symmetry_equiv_pos_as_xyz
1 x,y,z
2 x,-y,1/2-z
3 -x,1/2-y,z
4 -x,1/2+y,1/2-z
5 1/4+y,3/4-x,1/4-z
6 1/4-y,3/4-x,3/4+z
7 3/4-y,3/4+x,1/4-z
8 3/4+y,3/4+x,3/4+z
9 y,z,x
10 -y,1/2-z,x
11 y,-z,1/2-x
12 -y,1/2+z,1/2-x
13 1/4+z,3/4-y,1/4-x
14 1/4+z,1/4+y,1/4+x
15 3/4-z,3/4+y,1/4-x
16 3/4-z,1/4-y,1/4+x
17 z,x,y
18 1/2-z,x,-y
19 -z,1/2-x,y
20 1/2+z,1/2-x,-y
21 3/4+x,3/4+z,3/4+y
22 3/4+x,1/4-z,3/4-y
23 3/4-x,3/4+z,1/4-y
24 1/4-x,3/4-z,3/4+y
25 1/2+x,1/2+y,1/2+z
26 1/2+x,1/2-y,-z
27 1/2-x,-y,1/2+z
28 1/2-x,y,-z
29 3/4+y,1/4-x,3/4-z
30 3/4-y,1/4-x,1/4+z
31 1/4-y,1/4+x,3/4-z
32 1/4+y,1/4+x,1/4+z
33 1/2+y,1/2+z,1/2+x
34 1/2-y,-z,1/2+x
35 1/2+y,1/2-z,-x
36 1/2-y,z,-x
37 3/4+z,1/4-y,3/4-x
38 3/4+z,3/4+y,3/4+x
39 1/4-z,1/4+y,3/4-x
40 1/4-z,3/4-y,3/4+x
41 1/2+z,1/2+x,1/2+y
42 -z,1/2+x,1/2-y
43 1/2-z,-x,1/2+y
44 z,-x,1/2-y
45 1/4+x,1/4+z,1/4+y
46 1/4+x,3/4-z,1/4-y
47 1/4-x,1/4+z,3/4-y
48 3/4-x,1/4-z,1/4+y
_cell_length_a 29.8333(5)
_cell_length_b 29.8333(5)
_cell_length_c 29.8333(5)
_cell_angle_alpha 90
_cell_angle_beta 90
_cell_angle_gamma 90
_cell_formula_units_Z 16
loop_
_atom_type_symbol
_atom_type_radius_bond
C 0.68
H 0.23
Cu 1.17
I 1.40
P 1.05
loop_
_atom_site_label
_atom_site_type_symbol
_atom_site_fract_x
_atom_site_fract_y
_atom_site_fract_z
I1 I 0.991542(14) 0.038081(14) 0.920959(14)
I2 I 1.055077(14) 0.055077(14) 1.055077(14)
Cu1 Cu 0.96291(3) -0.03709(3) 0.96291(3)
Cu2 Cu 1.05415(3) 0.01148(3) 0.97665(3)
P1 P 0.91911(6) -0.08089(6) 0.91911(6)
P2 P 1.12600(5) 0.00754(6) 0.95377(6)
C1 C 1.1744(2) 0.0052(2) 1.0338(2)
H1 H 1.16830 0.03640 1.03540
C2 C 1.1570(2) 0.0592(2) 0.9423(2)
C3 C 0.8585(2) -0.0701(2) 0.9240(2)
C4 C 0.8263(2) -0.1028(3) 0.9160(3)
H2 H 0.83530 -0.13180 0.90650
C5 C 1.1380(2) -0.0249(2) 0.9028(2)
C6 C 0.8452(3) -0.0274(3) 0.9369(2)
H3 H 0.86710 -0.00470 0.94130
C7 C 1.1338(3) 0.0962(3) 0.9263(3)
H4 H 1.10200 0.09590 0.92500
C8 C 1.1595(2) -0.0201(2) 0.9967(2)
C9 C 1.1891(4) -0.0562(4) 0.8489(3)
H5 H 1.21890 -0.06340 0.84010
C10 C 1.2035(3) 0.0610(3) 0.9460(3)
H6 H 1.21940 0.03630 0.95830
C11 C 1.1103(4) -0.0605(3) 0.8360(3)
H7 H 1.08580 -0.06990 0.81800
C12 C 1.1982(3) -0.0161(3) 1.0680(2)
H8 H 1.20930 0.00110 1.09230
C13 C 1.2056(3) -0.0618(3) 1.0669(3)
H9 H 1.22180 -0.07600 1.09030
C14 C 0.8002(3) -0.0178(3) 0.9433(3)
H10 H 0.79130 0.01130 0.95260
C15 C 1.1028(3) -0.0389(3) 0.8761(3)
H11 H 1.07290 -0.03350 0.88560
C16 C 1.1536(4) -0.0684(3) 0.8224(3)
H12 H 1.15900 -0.08250 0.79430
C17 C 0.7808(3) -0.0931(3) 0.9220(3)
H13 H 0.75880 -0.11550 0.91640
C18 C 0.7681(3) -0.0506(3) 0.9361(3)
H14 H 0.73730 -0.04400 0.94080
C19 C 1.1893(3) -0.0869(3) 1.0313(3)
H15 H 1.19360 -0.11840 1.03070
C20 C 1.2267(3) 0.0985(3) 0.9320(3)
H16 H 1.25850 0.09930 0.93420
C21 C 1.1575(3) 0.1337(3) 0.9120(3)
H17 H 1.14160 0.15870 0.90020
C22 C 1.1666(3) -0.0660(2) 0.9965(3)
H18 H 1.15570 -0.08350 0.97220
C23 C 1.1811(3) -0.0331(4) 0.8889(4)
H19 H 1.20560 -0.02300 0.90660
C24 C 1.2036(3) 0.1354(3) 0.9145(3)
H20 H 1.21940 0.16120 0.90450
I1P I 0.920959(14) -0.008458(14) 1.038081(14)
I1H I 1.038081(14) -0.079041(14) 0.991542(14)
Cu2P Cu 0.97665(3) 0.05415(3) 1.01148(3)
Cu2H Cu 1.01148(3) -0.02335(3) 1.05415(3)
P2P P 0.95377(5) 0.12600(6) 1.00754(6)
P2H P 1.00754(5) -0.04623(6) 1.12600(6)
C1P C 1.0338(2) 0.1744(2) 1.0052(2)
C1H C 1.0052(2) 0.0338(2) 1.1744(2)
H1P H 1.03540 0.16830 1.03640
H1H H 1.03640 0.03540 1.16830
C2P C 0.9423(2) 0.1570(2) 1.0592(2)
C2H C 1.0592(2) -0.0577(2) 1.1570(2)
C3H C 0.9299(2) -0.0760(2) 0.8585(2)
C3P C 0.9240(2) -0.1415(2) 0.9299(2)
C4H C 0.8972(2) -0.0840(3) 0.8263(3)
C4P C 0.9160(2) -0.1737(3) 0.8972(3)
H2H H 0.86820 -0.09350 0.83530
H2P H 0.90650 -0.16470 0.86820
C5P C 0.9028(2) 0.1380(2) 0.9751(2)
C5H C 0.9751(2) -0.0972(2) 1.1380(2)
C6H C 0.9726(3) -0.0631(3) 0.8452(2)
C6P C 0.9369(3) -0.1548(3) 0.9726(2)
H3H H 0.99530 -0.05870 0.86710
H3P H 0.94130 -0.13290 0.99530
C7P C 0.9263(3) 0.1338(3) 1.0962(3)
C7H C 1.0962(3) -0.0737(3) 1.1338(3)
H4P H 0.92500 0.10200 1.09590
H4H H 1.09590 -0.07500 1.10200
C8P C 0.9967(2) 0.1595(2) 0.9799(2)
C8H C 0.9799(2) -0.0033(2) 1.1595(2)
C9P C 0.8489(4) 0.1891(4) 0.9438(3)
C9H C 0.9438(4) -0.1511(4) 1.1891(3)
H5P H 0.84010 0.21890 0.93660
H5H H 0.93660 -0.15990 1.21890
C10P C 0.9460(3) 0.2035(3) 1.0610(3)
C10H C 1.0610(3) -0.0540(3) 1.2035(3)
H6P H 0.95830 0.21940 1.03630
H6H H 1.03630 -0.04170 1.21940
C11P C 0.8360(4) 0.1103(3) 0.9395(3)
C11H C 0.9395(4) -0.1640(3) 1.1103(3)
H7P H 0.81800 0.08580 0.93010
H7H H 0.93010 -0.18200 1.08580
C12P C 1.0680(3) 0.1982(3) 0.9839(2)
C12H C 0.9839(3) 0.0680(3) 1.1982(2)
H8P H 1.09230 0.20930 1.00110
H8H H 1.00110 0.09230 1.20930
C13P C 1.0669(3) 0.2056(3) 0.9382(3)
C13H C 0.9382(3) 0.0669(3) 1.2056(3)
H9P H 1.09030 0.22180 0.92400
H9H H 0.92400 0.09030 1.22180
C14H C 0.9822(3) -0.0567(3) 0.8002(3)
C14P C 0.9433(3) -0.1998(3) 0.9822(3)
H10H H 1.01130 -0.04740 0.79130
H10P H 0.95260 -0.20870 1.01130
C15P C 0.8761(3) 0.1028(3) 0.9611(3)
C15H C 0.9611(3) -0.1239(3) 1.1028(3)
H11P H 0.88560 0.07290 0.96650
H11H H 0.96650 -0.11440 1.07290
C16P C 0.8224(4) 0.1536(3) 0.9316(3)
C16H C 0.9316(4) -0.1776(3) 1.1536(3)
H12P H 0.79430 0.15900 0.91750
H12H H 0.91750 -0.20570 1.15900
C17H C 0.9069(3) -0.0780(3) 0.7808(3)
C17P C 0.9220(3) -0.2192(3) 0.9069(3)
H13H H 0.88450 -0.08360 0.75880
H13P H 0.91640 -0.24120 0.88450
C18H C 0.9494(3) -0.0639(3) 0.7681(3)
C18P C 0.9361(3) -0.2319(3) 0.9494(3)
H14H H 0.95600 -0.05920 0.73730
H14P H 0.94080 -0.26270 0.95600
C19P C 1.0313(3) 0.1893(3) 0.9131(3)
C19H C 0.9131(3) 0.0313(3) 1.1893(3)
H15P H 1.03070 0.19360 0.88160
H15H H 0.88160 0.03070 1.19360
C20P C 0.9320(3) 0.2267(3) 1.0985(3)
C20H C 1.0985(3) -0.0680(3) 1.2267(3)
H16P H 0.93420 0.25850 1.09930
H16H H 1.09930 -0.06580 1.25850
C21P C 0.9120(3) 0.1575(3) 1.1337(3)
C21H C 1.1337(3) -0.0880(3) 1.1575(3)
H17P H 0.90020 0.14160 1.15870
H17H H 1.15870 -0.09980 1.14160
C22P C 0.9965(3) 0.1666(2) 0.9340(3)
C22H C 0.9340(3) -0.0035(2) 1.1666(3)
H18P H 0.97220 0.15570 0.91650
H18H H 0.91650 -0.02780 1.15570
C23P C 0.8889(3) 0.1811(4) 0.9669(4)
C23H C 0.9669(3) -0.1111(4) 1.1811(4)
H19P H 0.90660 0.20560 0.97700
H19H H 0.97700 -0.09340 1.20560
C24P C 0.9145(3) 0.2036(3) 1.1354(3)
C24H C 1.1354(3) -0.0855(3) 1.2036(3)
H20P H 0.90450 0.21940 1.16120
H20H H 1.16120 -0.09550 1.21940
#END

data_CSD_CIF_DEWJUK05
_audit_creation_date 2010-10-20
_audit_creation_method CSD-ConQuest-V1
_database_code_CSD DEWJUK05
_database_code_depnum_ccdc_archive 'CCDC 777565'
_chemical_formula_sum 'C72 H60 Cu4 I4 P4'
_chemical_formula_moiety
;
C72 H60 Cu4 I4 P4
;
_journal_coden_Cambridge 182
_journal_volume 46
_journal_year 2010
_journal_page_first 6302
_journal_name_full 'Chem.Commun. '
loop_
_publ_author_name
"H.Kitagawa"
"Y.Ozawa"
"K.Toriumi"
_chemical_name_systematic
;
tetrakis((\m~3~-Iodo)-(triphenylphosphine))-tetra-copper(i)
;
_cell_volume  26469.986
_exptl_crystal_colour 'colorless'
_exptl_crystal_density_diffrn 1.818
_exptl_special_details
;
cubic polymorph

;
_exptl_crystal_description 'block'
_exptl_crystal_preparation 'toluene/diethyl ether'
_diffrn_ambient_temperature 77
_diffrn_radiation_probe x-ray
_diffrn_source synchrotron
#These two values have been output from a single CSD field.
_refine_ls_R_factor_gt 0.0119
_refine_ls_wR_factor_gt 0.0119
_symmetry_cell_setting cubic
_symmetry_space_group_name_H-M 'I -4 3 d'
_symmetry_Int_Tables_number 220
loop_
_symmetry_equiv_pos_site_id
_symmetry_equiv_pos_as_xyz
1 x,y,z
2 x,-y,1/2-z
3 -x,1/2-y,z
4 -x,1/2+y,1/2-z
5 1/4+y,3/4-x,1/4-z
6 1/4-y,3/4-x,3/4+z
7 3/4-y,3/4+x,1/4-z
8 3/4+y,3/4+x,3/4+z
9 y,z,x
10 -y,1/2-z,x
11 y,-z,1/2-x
12 -y,1/2+z,1/2-x
13 1/4+z,3/4-y,1/4-x
14 1/4+z,1/4+y,1/4+x
15 3/4-z,3/4+y,1/4-x
16 3/4-z,1/4-y,1/4+x
17 z,x,y
18 1/2-z,x,-y
19 -z,1/2-x,y
20 1/2+z,1/2-x,-y
21 3/4+x,3/4+z,3/4+y
22 3/4+x,1/4-z,3/4-y
23 3/4-x,3/4+z,1/4-y
24 1/4-x,3/4-z,3/4+y
25 1/2+x,1/2+y,1/2+z
26 1/2+x,1/2-y,-z
27 1/2-x,-y,1/2+z
28 1/2-x,y,-z
29 3/4+y,1/4-x,3/4-z
30 3/4-y,1/4-x,1/4+z
31 1/4-y,1/4+x,3/4-z
32 1/4+y,1/4+x,1/4+z
33 1/2+y,1/2+z,1/2+x
34 1/2-y,-z,1/2+x
35 1/2+y,1/2-z,-x
36 1/2-y,z,-x
37 3/4+z,1/4-y,3/4-x
38 3/4+z,3/4+y,3/4+x
39 1/4-z,1/4+y,3/4-x
40 1/4-z,3/4-y,3/4+x
41 1/2+z,1/2+x,1/2+y
42 -z,1/2+x,1/2-y
43 1/2-z,-x,1/2+y
44 z,-x,1/2-y
45 1/4+x,1/4+z,1/4+y
46 1/4+x,3/4-z,1/4-y
47 1/4-x,1/4+z,3/4-y
48 3/4-x,1/4-z,1/4+y
_cell_length_a 29.8024(5)
_cell_length_b 29.8024(5)
_cell_length_c 29.8024(5)
_cell_angle_alpha 90
_cell_angle_beta 90
_cell_angle_gamma 90
_cell_formula_units_Z 16
loop_
_atom_type_symbol
_atom_type_radius_bond
C 0.68
H 0.23
Cu 1.17
I 1.40
P 1.05
loop_
_atom_site_label
_atom_site_type_symbol
_atom_site_fract_x
_atom_site_fract_y
_atom_site_fract_z
I1 I 0.991397(3) 0.038086(3) 0.920916(3)
I2 I 1.055101(3) 0.055101(3) 1.055101(3)
Cu1 Cu 0.962888(6) -0.037112(6) 0.962888(6)
Cu2 Cu 1.053976(6) 0.011650(7) 0.976634(6)
P1 P 0.918967(12) -0.081033(12) 0.918967(12)
P2 P 1.125909(12) 0.007700(13) 0.953790(13)
C1 C 1.17485(5) 0.00510(6) 1.03360(5)
H1 H 1.16930 0.03650 1.03500
C2 C 1.15679(5) 0.05926(5) 0.94243(5)
C3 C 0.85880(5) -0.07002(5) 0.92394(5)
C4 C 0.82607(5) -0.10278(5) 0.91591(5)
H2 H 0.83480 -0.13190 0.90620
C5 C 1.13752(5) -0.02452(5) 0.90286(5)
C6 C 0.84529(5) -0.02736(5) 0.93704(5)
H3 H 0.86710 -0.00460 0.94170
C7 C 1.13367(6) 0.09635(6) 0.92596(5)
H4 H 1.10180 0.09590 0.92450
C8 C 1.15946(5) -0.01971(5) 0.99680(5)
C9 C 1.18928(8) -0.05550(9) 0.84859(7)
H5 H 1.21920 -0.06140 0.83940
C10 C 1.20366(6) 0.06129(6) 0.94555(6)
H6 H 1.21980 0.03650 0.95740
C11 C 1.11018(7) -0.06068(6) 0.83579(6)
H7 H 1.08560 -0.07010 0.81770
C12 C 1.19813(6) -0.01589(6) 1.06807(5)
H8 H 1.20890 0.00120 1.09270
C13 C 1.20565(6) -0.06190(6) 1.06659(6)
H9 H 1.22180 -0.07620 1.09000
C14 C 0.79988(6) -0.01755(6) 0.94340(6)
H10 H 0.79100 0.01170 0.95250
C15 C 1.10236(6) -0.03866(5) 0.87618(6)
H11 H 1.07240 -0.03330 0.88560
C16 C 1.15376(7) -0.06887(6) 0.82188(6)
H12 H 1.15920 -0.08360 0.79410
C17 C 0.78078(5) -0.09284(6) 0.92214(6)
H13 H 0.75870 -0.11510 0.91660
C18 C 0.76791(5) -0.05058(6) 0.93643(6)
H14 H 0.73710 -0.04420 0.94150
C19 C 1.18954(6) -0.08663(6) 1.03100(6)
H15 H 1.19430 -0.11810 1.03010
C20 C 1.22659(6) 0.09911(6) 0.93154(6)
H16 H 1.25840 0.10010 0.93390
C21 C 1.15732(7) 0.13423(6) 0.91159(6)
H17 H 1.14140 0.15930 0.89990
C22 C 1.16632(6) -0.06580(5) 0.99634(6)
H18 H 1.15500 -0.08320 0.97210
C23 C 1.18122(7) -0.03350(8) 0.88873(7)
H19 H 1.20580 -0.02440 0.90690
C24 C 1.20364(7) 0.13549(6) 0.91421(6)
H20 H 1.21960 0.16120 0.90420
I1P I 0.920916(3) -0.008603(3) 1.038086(3)
I1H I 1.038086(3) -0.079084(3) 0.991397(3)
Cu2P Cu 0.976634(6) 0.053976(7) 1.011650(6)
Cu2H Cu 1.011650(6) -0.023366(7) 1.053976(6)
P2P P 0.953790(12) 0.125909(13) 1.007700(13)
P2H P 1.007700(12) -0.046210(13) 1.125909(13)
C1P C 1.03360(5) 0.17485(6) 1.00510(5)
C1H C 1.00510(5) 0.03360(6) 1.17485(5)
H1P H 1.03500 0.16930 1.03650
H1H H 1.03650 0.03500 1.16930
C2P C 0.94243(5) 0.15679(5) 1.05926(5)
C2H C 1.05926(5) -0.05757(5) 1.15679(5)
C3H C 0.92998(5) -0.07606(5) 0.85880(5)
C3P C 0.92394(5) -0.14120(5) 0.92998(5)
C4H C 0.89722(5) -0.08409(5) 0.82607(5)
C4P C 0.91591(5) -0.17393(5) 0.89722(5)
H2H H 0.86810 -0.09380 0.83480
H2P H 0.90620 -0.16520 0.86810
C5P C 0.90286(5) 0.13752(5) 0.97548(5)
C5H C 0.97548(5) -0.09714(5) 1.13752(5)
C6H C 0.97264(5) -0.06296(5) 0.84529(5)
C6P C 0.93704(5) -0.15471(5) 0.97264(5)
H3H H 0.99540 -0.05830 0.86710
H3P H 0.94170 -0.13290 0.99540
C7P C 0.92596(6) 0.13367(6) 1.09635(5)
C7H C 1.09635(6) -0.07404(6) 1.13367(5)
H4P H 0.92450 0.10180 1.09590
H4H H 1.09590 -0.07550 1.10180
C8P C 0.99680(5) 0.15946(5) 0.98029(5)
C8H C 0.98029(5) -0.00320(5) 1.15946(5)
C9P C 0.84859(8) 0.18928(9) 0.94450(7)
C9H C 0.94450(8) -0.15141(9) 1.18928(7)
H5P H 0.83940 0.21920 0.93860
H5H H 0.93860 -0.16060 1.21920
C10P C 0.94555(6) 0.20366(6) 1.06129(6)
C10H C 1.06129(6) -0.05445(6) 1.20366(6)
H6P H 0.95740 0.21980 1.03650
H6H H 1.03650 -0.04260 1.21980
C11P C 0.83579(7) 0.11018(6) 0.93932(6)
C11H C 0.93932(7) -0.16421(6) 1.11018(6)
H7P H 0.81770 0.08560 0.92990
H7H H 0.92990 -0.18230 1.08560
C12P C 1.06807(6) 0.19813(6) 0.98411(5)
C12H C 0.98411(6) 0.06807(6) 1.19813(5)
H8P H 1.09270 0.20890 1.00120
H8H H 1.00120 0.09270 1.20890
C13P C 1.06659(6) 0.20565(6) 0.93810(6)
C13H C 0.93810(6) 0.06659(6) 1.20565(6)
H9P H 1.09000 0.22180 0.92380
H9H H 0.92380 0.09000 1.22180
C14H C 0.98245(6) -0.05660(6) 0.79988(6)
C14P C 0.94340(6) -0.20012(6) 0.98245(6)
H10H H 1.01170 -0.04750 0.79100
H10P H 0.95250 -0.20900 1.01170
C15P C 0.87618(6) 0.10236(5) 0.96134(6)
C15H C 0.96134(6) -0.12382(5) 1.10236(6)
H11P H 0.88560 0.07240 0.96670
H11H H 0.96670 -0.11440 1.07240
C16P C 0.82188(7) 0.15376(6) 0.93113(6)
C16H C 0.93113(7) -0.17812(6) 1.15376(6)
H12P H 0.79410 0.15920 0.91640
H12H H 0.91640 -0.20590 1.15920
C17H C 0.90716(5) -0.07786(6) 0.78078(6)
C17P C 0.92214(5) -0.21922(6) 0.90716(6)
H13H H 0.88490 -0.08340 0.75870
H13P H 0.91660 -0.24130 0.88490
C18H C 0.94942(5) -0.06357(6) 0.76791(6)
C18P C 0.93643(5) -0.23209(6) 0.94942(6)
H14H H 0.95580 -0.05850 0.73710
H14P H 0.94150 -0.26290 0.95580
C19P C 1.03100(6) 0.18954(6) 0.91337(6)
C19H C 0.91337(6) 0.03100(6) 1.18954(6)
H15P H 1.03010 0.19430 0.88190
H15H H 0.88190 0.03010 1.19430
C20P C 0.93154(6) 0.22659(6) 1.09911(6)
C20H C 1.09911(6) -0.06846(6) 1.22659(6)
H16P H 0.93390 0.25840 1.10010
H16H H 1.10010 -0.06610 1.25840
C21P C 0.91159(7) 0.15732(6) 1.13423(6)
C21H C 1.13423(7) -0.08841(6) 1.15732(6)
H17P H 0.89990 0.14140 1.15930
H17H H 1.15930 -0.10010 1.14140
C22P C 0.99634(6) 0.16632(5) 0.93420(6)
C22H C 0.93420(6) -0.00366(5) 1.16632(6)
H18P H 0.97210 0.15500 0.91680
H18H H 0.91680 -0.02790 1.15500
C23P C 0.88873(7) 0.18122(8) 0.96650(7)
C23H C 0.96650(7) -0.11127(8) 1.18122(7)
H19P H 0.90690 0.20580 0.97560
H19H H 0.97560 -0.09310 1.20580
C24P C 0.91421(7) 0.20364(6) 1.13549(6)
C24H C 1.13549(7) -0.08579(6) 1.20364(6)
H20P H 0.90420 0.21960 1.16120
H20H H 1.16120 -0.09580 1.21960
#END

data_CSD_CIF_DEWJUK06
_audit_creation_date 2010-10-20
_audit_creation_method CSD-ConQuest-V1
_database_code_CSD DEWJUK06
_database_code_depnum_ccdc_archive 'CCDC 777566'
_chemical_formula_sum 'C72 H60 Cu4 I4 P4'
_chemical_formula_moiety
;
C72 H60 Cu4 I4 P4
;
_journal_coden_Cambridge 182
_journal_volume 46
_journal_year 2010
_journal_page_first 6302
_journal_name_full 'Chem.Commun. '
loop_
_publ_author_name
"H.Kitagawa"
"Y.Ozawa"
"K.Toriumi"
_chemical_name_systematic
;
tetrakis((\m~3~-Iodo)-(triphenylphosphine))-tetra-copper(i)
;
_cell_volume  26348.934
_exptl_crystal_colour 'colorless'
_exptl_crystal_density_diffrn 1.826
_exptl_special_details
;
cubic polymorph

;
_exptl_crystal_description 'block'
_exptl_crystal_preparation 'toluene/diethyl ether'
_diffrn_ambient_temperature 45
_diffrn_radiation_probe x-ray
_diffrn_source synchrotron
#These two values have been output from a single CSD field.
_refine_ls_R_factor_gt 0.0114
_refine_ls_wR_factor_gt 0.0114
_symmetry_cell_setting cubic
_symmetry_space_group_name_H-M 'I -4 3 d'
_symmetry_Int_Tables_number 220
loop_
_symmetry_equiv_pos_site_id
_symmetry_equiv_pos_as_xyz
1 x,y,z
2 x,-y,1/2-z
3 -x,1/2-y,z
4 -x,1/2+y,1/2-z
5 1/4+y,3/4-x,1/4-z
6 1/4-y,3/4-x,3/4+z
7 3/4-y,3/4+x,1/4-z
8 3/4+y,3/4+x,3/4+z
9 y,z,x
10 -y,1/2-z,x
11 y,-z,1/2-x
12 -y,1/2+z,1/2-x
13 1/4+z,3/4-y,1/4-x
14 1/4+z,1/4+y,1/4+x
15 3/4-z,3/4+y,1/4-x
16 3/4-z,1/4-y,1/4+x
17 z,x,y
18 1/2-z,x,-y
19 -z,1/2-x,y
20 1/2+z,1/2-x,-y
21 3/4+x,3/4+z,3/4+y
22 3/4+x,1/4-z,3/4-y
23 3/4-x,3/4+z,1/4-y
24 1/4-x,3/4-z,3/4+y
25 1/2+x,1/2+y,1/2+z
26 1/2+x,1/2-y,-z
27 1/2-x,-y,1/2+z
28 1/2-x,y,-z
29 3/4+y,1/4-x,3/4-z
30 3/4-y,1/4-x,1/4+z
31 1/4-y,1/4+x,3/4-z
32 1/4+y,1/4+x,1/4+z
33 1/2+y,1/2+z,1/2+x
34 1/2-y,-z,1/2+x
35 1/2+y,1/2-z,-x
36 1/2-y,z,-x
37 3/4+z,1/4-y,3/4-x
38 3/4+z,3/4+y,3/4+x
39 1/4-z,1/4+y,3/4-x
40 1/4-z,3/4-y,3/4+x
41 1/2+z,1/2+x,1/2+y
42 -z,1/2+x,1/2-y
43 1/2-z,-x,1/2+y
44 z,-x,1/2-y
45 1/4+x,1/4+z,1/4+y
46 1/4+x,3/4-z,1/4-y
47 1/4-x,1/4+z,3/4-y
48 3/4-x,1/4-z,1/4+y
_cell_length_a 29.7569(5)
_cell_length_b 29.7569(5)
_cell_length_c 29.7569(5)
_cell_angle_alpha 90
_cell_angle_beta 90
_cell_angle_gamma 90
_cell_formula_units_Z 16
loop_
_atom_type_symbol
_atom_type_radius_bond
C 0.68
H 0.23
Cu 1.17
I 1.40
P 1.05
loop_
_atom_site_label
_atom_site_type_symbol
_atom_site_fract_x
_atom_site_fract_y
_atom_site_fract_z
I1 I 0.991215(3) 0.038128(3) 0.920656(3)
I2 I 1.055187(3) 0.055187(3) 1.055187(3)
Cu1 Cu 0.962887(6) -0.037113(6) 0.962887(6)
Cu2 Cu 1.053692(6) 0.011550(6) 0.976659(6)
P1 P 0.918877(12) -0.081123(12) 0.918877(12)
P2 P 1.125784(12) 0.007531(12) 0.953902(12)
C1 C 1.17479(5) 0.00491(5) 1.03389(5)
H1 H 1.16930 0.03630 1.03530
C2 C 1.15691(5) 0.05911(5) 0.94256(5)
C3 C 0.85864(5) -0.07011(5) 0.92386(5)
C4 C 0.82582(5) -0.10292(5) 0.91582(5)
H2 H 0.83450 -0.13200 0.90600
C5 C 1.13756(5) -0.02481(5) 0.90290(5)
C6 C 0.84507(5) -0.02727(5) 0.93714(5)
H3 H 0.86700 -0.00450 0.94180
C7 C 1.13381(5) 0.09636(5) 0.92590(5)
H4 H 1.10190 0.09600 0.92440
C8 C 1.15930(5) -0.01999(5) 0.99704(5)
C9 C 1.18957(7) -0.05601(7) 0.84872(6)
H5 H 1.21960 -0.06210 0.83960
C10 C 1.20386(5) 0.06089(5) 0.94574(5)
H6 H 1.21990 0.03600 0.95770
C11 C 1.11015(6) -0.06086(5) 0.83556(6)
H7 H 1.08560 -0.07020 0.81740
C12 C 1.19815(5) -0.01610(6) 1.06845(5)
H8 H 1.20900 0.00110 1.09310
C13 C 1.20568(5) -0.06223(6) 1.06698(5)
H9 H 1.22200 -0.07650 1.09040
C14 C 0.79962(5) -0.01748(5) 0.94369(5)
H10 H 0.79070 0.01180 0.95290
C15 C 1.10218(5) -0.03879(5) 0.87601(5)
H11 H 1.07210 -0.03320 0.88530
C16 C 1.15384(6) -0.06923(6) 0.82174(6)
H12 H 1.15930 -0.08390 0.79390
C17 C 0.78042(5) -0.09306(5) 0.92221(5)
H13 H 0.75830 -0.11540 0.91660
C18 C 0.76752(5) -0.05076(5) 0.93670(5)
H14 H 0.73670 -0.04440 0.94190
C19 C 1.18931(6) -0.08722(5) 1.03127(6)
H15 H 1.19400 -0.11880 1.03050
C20 C 1.22708(6) 0.09872(6) 0.93162(6)
H16 H 1.25890 0.09960 0.93400
C21 C 1.15766(6) 0.13417(5) 0.91143(5)
H17 H 1.14190 0.15930 0.89970
C22 C 1.16610(5) -0.06625(5) 0.99660(5)
H18 H 1.15480 -0.08370 0.97240
C23 C 1.18142(6) -0.03395(7) 0.88899(6)
H19 H 1.20600 -0.02500 0.90730
C24 C 1.20415(6) 0.13522(5) 0.91408(5)
H20 H 1.22020 0.16090 0.90390
I1P I 0.920656(3) -0.008785(3) 1.038128(3)
I1H I 1.038128(3) -0.079344(3) 0.991215(3)
Cu2P Cu 0.976659(6) 0.053692(6) 1.011550(6)
Cu2H Cu 1.011550(6) -0.023341(6) 1.053692(6)
P2P P 0.953902(12) 0.125784(12) 1.007531(12)
P2H P 1.007531(12) -0.046098(12) 1.125784(12)
C1P C 1.03389(5) 0.17479(5) 1.00491(5)
C1H C 1.00491(5) 0.03389(5) 1.17479(5)
H1P H 1.03530 0.16930 1.03630
H1H H 1.03630 0.03530 1.16930
C2P C 0.94256(5) 0.15691(5) 1.05911(5)
C2H C 1.05911(5) -0.05744(5) 1.15691(5)
C3H C 0.92989(5) -0.07614(5) 0.85864(5)
C3P C 0.92386(5) -0.14136(5) 0.92989(5)
C4H C 0.89708(5) -0.08418(5) 0.82582(5)
C4P C 0.91582(5) -0.17418(5) 0.89708(5)
H2H H 0.86800 -0.09400 0.83450
H2P H 0.90600 -0.16550 0.86800
C5P C 0.90290(5) 0.13756(5) 0.97519(5)
C5H C 0.97519(5) -0.09710(5) 1.13756(5)
C6H C 0.97273(5) -0.06286(5) 0.84507(5)
C6P C 0.93714(5) -0.15493(5) 0.97273(5)
H3H H 0.99550 -0.05820 0.86700
H3P H 0.94180 -0.13300 0.99550
C7P C 0.92590(5) 0.13381(5) 1.09636(5)
C7H C 1.09636(5) -0.07410(5) 1.13381(5)
H4P H 0.92440 0.10190 1.09600
H4H H 1.09600 -0.07560 1.10190
C8P C 0.99704(5) 0.15930(5) 0.98001(5)
C8H C 0.98001(5) -0.00296(5) 1.15930(5)
C9P C 0.84872(7) 0.18957(7) 0.94399(6)
C9H C 0.94399(7) -0.15128(7) 1.18957(6)
H5P H 0.83960 0.21960 0.93790
H5H H 0.93790 -0.16040 1.21960
C10P C 0.94574(5) 0.20386(5) 1.06089(5)
C10H C 1.06089(5) -0.05426(5) 1.20386(5)
H6P H 0.95770 0.21990 1.03600
H6H H 1.03600 -0.04230 1.21990
C11P C 0.83556(6) 0.11015(5) 0.93914(6)
C11H C 0.93914(6) -0.16444(5) 1.11015(6)
H7P H 0.81740 0.08560 0.92980
H7H H 0.92980 -0.18260 1.08560
C12P C 1.06845(5) 0.19815(6) 0.98390(5)
C12H C 0.98390(5) 0.06845(6) 1.19815(5)
H8P H 1.09310 0.20900 1.00110
H8H H 1.00110 0.09310 1.20900
C13P C 1.06698(5) 0.20568(6) 0.93777(5)
C13H C 0.93777(5) 0.06698(6) 1.20568(5)
H9P H 1.09040 0.22200 0.92350
H9H H 0.92350 0.09040 1.22200
C14H C 0.98252(5) -0.05631(5) 0.79962(5)
C14P C 0.94369(5) -0.20038(5) 0.98252(5)
H10H H 1.01180 -0.04710 0.79070
H10P H 0.95290 -0.20930 1.01180
C15P C 0.87601(5) 0.10218(5) 0.96121(5)
C15H C 0.96121(5) -0.12399(5) 1.10218(5)
H11P H 0.88530 0.07210 0.96680
H11H H 0.96680 -0.11470 1.07210
C16P C 0.82174(6) 0.15384(6) 0.93077(6)
C16H C 0.93077(6) -0.17826(6) 1.15384(6)
H12P H 0.79390 0.15930 0.91610
H12H H 0.91610 -0.20610 1.15930
C17H C 0.90694(5) -0.07779(5) 0.78042(5)
C17P C 0.92221(5) -0.21958(5) 0.90694(5)
H13H H 0.88460 -0.08340 0.75830
H13P H 0.91660 -0.24170 0.88460
C18H C 0.94924(5) -0.06330(5) 0.76752(5)
C18P C 0.93670(5) -0.23248(5) 0.94924(5)
H14H H 0.95560 -0.05810 0.73670
H14P H 0.94190 -0.26330 0.95560
C19P C 1.03127(6) 0.18931(5) 0.91278(6)
C19H C 0.91278(6) 0.03127(5) 1.18931(6)
H15P H 1.03050 0.19400 0.88120
H15H H 0.88120 0.03050 1.19400
C20P C 0.93162(6) 0.22708(6) 1.09872(6)
C20H C 1.09872(6) -0.06838(6) 1.22708(6)
H16P H 0.93400 0.25890 1.09960
H16H H 1.09960 -0.06600 1.25890
C21P C 0.91143(6) 0.15766(5) 1.13417(5)
C21H C 1.13417(6) -0.08857(5) 1.15766(5)
H17P H 0.89970 0.14190 1.15930
H17H H 1.15930 -0.10030 1.14190
C22P C 0.99660(5) 0.16610(5) 0.93375(5)
C22H C 0.93375(5) -0.00340(5) 1.16610(5)
H18P H 0.97240 0.15480 0.91630
H18H H 0.91630 -0.02760 1.15480
C23P C 0.88899(6) 0.18142(7) 0.96605(6)
C23H C 0.96605(6) -0.11101(7) 1.18142(6)
H19P H 0.90730 0.20600 0.97500
H19H H 0.97500 -0.09270 1.20600
C24P C 0.91408(6) 0.20415(5) 1.13522(5)
C24H C 1.13522(6) -0.08592(5) 1.20415(5)
H20P H 0.90390 0.22020 1.16090
H20H H 1.16090 -0.09610 1.22020
#END

data_CSD_CIF_DEWJUK07
_audit_creation_date 2010-10-20
_audit_creation_method CSD-ConQuest-V1
_database_code_CSD DEWJUK07
_database_code_depnum_ccdc_archive 'CCDC 777567'
_chemical_formula_sum 'C72 H60 Cu4 I4 P4'
_chemical_formula_moiety
;
C72 H60 Cu4 I4 P4
;
_journal_coden_Cambridge 182
_journal_volume 46
_journal_year 2010
_journal_page_first 6302
_journal_name_full 'Chem.Commun. '
loop_
_publ_author_name
"H.Kitagawa"
"Y.Ozawa"
"K.Toriumi"
_chemical_name_systematic
;
tetrakis((\m~3~-Iodo)-(triphenylphosphine))-tetra-copper(i)
;
_cell_volume  26284.171
_exptl_crystal_colour 'colorless'
_exptl_crystal_density_diffrn 1.83
_exptl_special_details
;
cubic polymorph

;
_exptl_crystal_description 'block'
_exptl_crystal_preparation 'toluene/diethyl ether'
_diffrn_ambient_temperature 11
_diffrn_radiation_probe x-ray
_diffrn_source synchrotron
#These two values have been output from a single CSD field.
_refine_ls_R_factor_gt 0.0131
_refine_ls_wR_factor_gt 0.0131
_symmetry_cell_setting cubic
_symmetry_space_group_name_H-M 'I -4 3 d'
_symmetry_Int_Tables_number 220
loop_
_symmetry_equiv_pos_site_id
_symmetry_equiv_pos_as_xyz
1 x,y,z
2 x,-y,1/2-z
3 -x,1/2-y,z
4 -x,1/2+y,1/2-z
5 1/4+y,3/4-x,1/4-z
6 1/4-y,3/4-x,3/4+z
7 3/4-y,3/4+x,1/4-z
8 3/4+y,3/4+x,3/4+z
9 y,z,x
10 -y,1/2-z,x
11 y,-z,1/2-x
12 -y,1/2+z,1/2-x
13 1/4+z,3/4-y,1/4-x
14 1/4+z,1/4+y,1/4+x
15 3/4-z,3/4+y,1/4-x
16 3/4-z,1/4-y,1/4+x
17 z,x,y
18 1/2-z,x,-y
19 -z,1/2-x,y
20 1/2+z,1/2-x,-y
21 3/4+x,3/4+z,3/4+y
22 3/4+x,1/4-z,3/4-y
23 3/4-x,3/4+z,1/4-y
24 1/4-x,3/4-z,3/4+y
25 1/2+x,1/2+y,1/2+z
26 1/2+x,1/2-y,-z
27 1/2-x,-y,1/2+z
28 1/2-x,y,-z
29 3/4+y,1/4-x,3/4-z
30 3/4-y,1/4-x,1/4+z
31 1/4-y,1/4+x,3/4-z
32 1/4+y,1/4+x,1/4+z
33 1/2+y,1/2+z,1/2+x
34 1/2-y,-z,1/2+x
35 1/2+y,1/2-z,-x
36 1/2-y,z,-x
37 3/4+z,1/4-y,3/4-x
38 3/4+z,3/4+y,3/4+x
39 1/4-z,1/4+y,3/4-x
40 1/4-z,3/4-y,3/4+x
41 1/2+z,1/2+x,1/2+y
42 -z,1/2+x,1/2-y
43 1/2-z,-x,1/2+y
44 z,-x,1/2-y
45 1/4+x,1/4+z,1/4+y
46 1/4+x,3/4-z,1/4-y
47 1/4-x,1/4+z,3/4-y
48 3/4-x,1/4-z,1/4+y
_cell_length_a 29.7325(5)
_cell_length_b 29.7325(5)
_cell_length_c 29.7325(5)
_cell_angle_alpha 90
_cell_angle_beta 90
_cell_angle_gamma 90
_cell_formula_units_Z 16
loop_
_atom_type_symbol
_atom_type_radius_bond
C 0.68
H 0.23
Cu 1.17
I 1.40
P 1.05
loop_
_atom_site_label
_atom_site_type_symbol
_atom_site_fract_x
_atom_site_fract_y
_atom_site_fract_z
I1 I 0.991044(3) 0.038122(3) 0.920448(3)
I2 I 1.055181(3) 0.055181(3) 1.055181(3)
Cu1 Cu 0.962849(7) -0.037151(7) 0.962849(7)
Cu2 Cu 1.053488(6) 0.011438(7) 0.976597(6)
P1 P 0.918797(13) -0.081203(13) 0.918797(13)
P2 P 1.125697(13) 0.007347(13) 0.953993(13)
C1 C 1.17467(5) 0.00475(5) 1.03411(5)
H1 H 1.16910 0.03620 1.03550
C2 C 1.15701(5) 0.05890(5) 0.94262(5)
C3 C 0.85851(5) -0.07020(5) 0.92378(5)
C4 C 0.82568(5) -0.10306(5) 0.91576(5)
H2 H 0.83440 -0.13210 0.90580
C5 C 1.13764(5) -0.02511(5) 0.90300(5)
C6 C 0.84495(5) -0.02729(5) 0.93712(5)
H3 H 0.86690 -0.00450 0.94170
C7 C 1.13395(6) 0.09622(6) 0.92583(5)
H4 H 1.10200 0.09590 0.92430
C8 C 1.15915(5) -0.02025(5) 0.99725(5)
C9 C 1.18993(7) -0.05656(7) 0.84898(6)
H5 H 1.22000 -0.06280 0.84000
C10 C 1.20402(5) 0.06049(5) 0.94593(6)
H6 H 1.21990 0.03550 0.95800
C11 C 1.11029(6) -0.06087(6) 0.83530(6)
H7 H 1.08580 -0.07000 0.81690
C12 C 1.19812(5) -0.01627(6) 1.06864(5)
H8 H 1.20910 0.00090 1.09320
C13 C 1.20556(5) -0.06257(6) 1.06727(6)
H9 H 1.22190 -0.07690 1.09070
C14 C 0.79945(6) -0.01749(6) 0.94378(6)
H10 H 0.79050 0.01180 0.95290
C15 C 1.10215(6) -0.03877(5) 0.87578(6)
H11 H 1.07210 -0.03300 0.88490
C16 C 1.15410(7) -0.06956(6) 0.82171(6)
H12 H 1.15960 -0.08430 0.79390
C17 C 0.78019(5) -0.09327(5) 0.92230(6)
H13 H 0.75810 -0.11570 0.91670
C18 C 0.76730(5) -0.05087(6) 0.93692(5)
H14 H 0.73640 -0.04460 0.94230
C19 C 1.18904(6) -0.08760(6) 1.03151(6)
H15 H 1.19360 -0.11920 1.03080
C20 C 1.22746(6) 0.09832(6) 0.93172(6)
H16 H 1.25930 0.09910 0.93410
C21 C 1.15788(6) 0.13401(6) 0.91132(6)
H17 H 1.14220 0.15920 0.89950
C22 C 1.16586(6) -0.06661(5) 0.99672(6)
H18 H 1.15450 -0.08400 0.97240
C23 C 1.18161(6) -0.03448(7) 0.88937(6)
H19 H 1.20610 -0.02570 0.90790
C24 C 1.20461(6) 0.13489(6) 0.91404(6)
H20 H 1.22080 0.16050 0.90380
I1P I 0.920448(3) -0.008956(3) 1.038122(3)
I1H I 1.038122(3) -0.079552(3) 0.991044(3)
Cu2P Cu 0.976597(6) 0.053488(7) 1.011438(6)
Cu2H Cu 1.011438(6) -0.023403(7) 1.053488(6)
P2P P 0.953993(13) 0.125697(13) 1.007347(13)
P2H P 1.007347(13) -0.046007(13) 1.125697(13)
C1P C 1.03411(5) 0.17467(5) 1.00475(5)
C1H C 1.00475(5) 0.03411(5) 1.17467(5)
H1P H 1.03550 0.16910 1.03620
H1H H 1.03620 0.03550 1.16910
C2P C 0.94262(5) 0.15701(5) 1.05890(5)
C2H C 1.05890(5) -0.05738(5) 1.15701(5)
C3H C 0.92980(5) -0.07622(5) 0.85851(5)
C3P C 0.92378(5) -0.14149(5) 0.92980(5)
C4H C 0.89694(5) -0.08424(5) 0.82568(5)
C4P C 0.91576(5) -0.17432(5) 0.89694(5)
H2H H 0.86790 -0.09420 0.83440
H2P H 0.90580 -0.16560 0.86790
C5P C 0.90300(5) 0.13764(5) 0.97489(5)
C5H C 0.97489(5) -0.09700(5) 1.13764(5)
C6H C 0.97271(5) -0.06288(5) 0.84495(5)
C6P C 0.93712(5) -0.15505(5) 0.97271(5)
H3H H 0.99550 -0.05830 0.86690
H3P H 0.94170 -0.13310 0.99550
C7P C 0.92583(6) 0.13395(6) 1.09622(5)
C7H C 1.09622(6) -0.07417(6) 1.13395(5)
H4P H 0.92430 0.10200 1.09590
H4H H 1.09590 -0.07570 1.10200
C8P C 0.99725(5) 0.15915(5) 0.97975(5)
C8H C 0.97975(5) -0.00275(5) 1.15915(5)
C9P C 0.84898(7) 0.18993(7) 0.94344(6)
C9H C 0.94344(7) -0.15102(7) 1.18993(6)
H5P H 0.84000 0.22000 0.93720
H5H H 0.93720 -0.16000 1.22000
C10P C 0.94593(5) 0.20402(5) 1.06049(6)
C10H C 1.06049(5) -0.05407(5) 1.20402(6)
H6P H 0.95800 0.21990 1.03550
H6H H 1.03550 -0.04200 1.21990
C11P C 0.83530(6) 0.11029(6) 0.93913(6)
C11H C 0.93913(6) -0.16470(6) 1.11029(6)
H7P H 0.81690 0.08580 0.93000
H7H H 0.93000 -0.18310 1.08580
C12P C 1.06864(5) 0.19812(6) 0.98373(5)
C12H C 0.98373(5) 0.06864(6) 1.19812(5)
H8P H 1.09320 0.20910 1.00090
H8H H 1.00090 0.09320 1.20910
C13P C 1.06727(5) 0.20556(6) 0.93743(6)
C13H C 0.93743(5) 0.06727(6) 1.20556(6)
H9P H 1.09070 0.22190 0.92310
H9H H 0.92310 0.09070 1.22190
C14H C 0.98251(6) -0.05622(6) 0.79945(6)
C14P C 0.94378(6) -0.20055(6) 0.98251(6)
H10H H 1.01180 -0.04710 0.79050
H10P H 0.95290 -0.20950 1.01180
C15P C 0.87578(6) 0.10215(5) 0.96123(6)
C15H C 0.96123(6) -0.12422(5) 1.10215(6)
H11P H 0.88490 0.07210 0.96700
H11H H 0.96700 -0.11510 1.07210
C16P C 0.82171(7) 0.15410(6) 0.93044(6)
C16H C 0.93044(7) -0.17829(6) 1.15410(6)
H12P H 0.79390 0.15960 0.91570
H12H H 0.91570 -0.20610 1.15960
C17H C 0.90673(5) -0.07770(5) 0.78019(6)
C17P C 0.92230(5) -0.21981(5) 0.90673(6)
H13H H 0.88430 -0.08330 0.75810
H13P H 0.91670 -0.24190 0.88430
C18H C 0.94913(5) -0.06308(6) 0.76730(5)
C18P C 0.93692(5) -0.23270(6) 0.94913(5)
H14H H 0.95540 -0.05770 0.73640
H14P H 0.94230 -0.26360 0.95540
C19P C 1.03151(6) 0.18904(6) 0.91240(6)
C19H C 0.91240(6) 0.03151(6) 1.18904(6)
H15P H 1.03080 0.19360 0.88080
H15H H 0.88080 0.03080 1.19360
C20P C 0.93172(6) 0.22746(6) 1.09832(6)
C20H C 1.09832(6) -0.06828(6) 1.22746(6)
H16P H 0.93410 0.25930 1.09910
H16H H 1.09910 -0.06590 1.25930
C21P C 0.91132(6) 0.15788(6) 1.13401(6)
C21H C 1.13401(6) -0.08868(6) 1.15788(6)
H17P H 0.89950 0.14220 1.15920
H17H H 1.15920 -0.10050 1.14220
C22P C 0.99672(6) 0.16586(5) 0.93339(6)
C22H C 0.93339(6) -0.00328(5) 1.16586(6)
H18P H 0.97240 0.15450 0.91600
H18H H 0.91600 -0.02760 1.15450
C23P C 0.88937(6) 0.18161(7) 0.96552(6)
C23H C 0.96552(6) -0.11063(7) 1.18161(6)
H19P H 0.90790 0.20610 0.97430
H19H H 0.97430 -0.09210 1.20610
C24P C 0.91404(6) 0.20461(6) 1.13489(6)
C24H C 1.13489(6) -0.08596(6) 1.20461(6)
H20P H 0.90380 0.22080 1.16050
H20H H 1.16050 -0.09620 1.22080
#END

data_CSD_CIF_DEWJUK18
_audit_creation_date 2012-03-05
_audit_creation_method CSD-ConQuest-V1
_database_code_CSD DEWJUK18
_database_code_depnum_ccdc_archive 'CCDC 838120'
_chemical_formula_sum 'C72 H60 Cu4 I4 P4'
_chemical_formula_moiety
;
C72 H60 Cu4 I4 P4
;
_journal_coden_Cambridge 222
_journal_volume 41
_journal_year 2012
_journal_page_first 531
_journal_name_full 'Dalton Trans. '
loop_
_publ_author_name
"L.Maini"
"D.Braga"
"P.P.Mazzeo"
"B.Ventura"
_chemical_name_systematic
;
tetrakis(\m~3~-Iodo)-tetrakis(triphenylphosphine)-tetra-copper(i)
;
_cell_volume  26427.377
_exptl_crystal_colour 'colorless'
_exptl_crystal_density_diffrn 1.821
_exptl_special_details
;
cubic polymorph

;
_exptl_crystal_description 'prism'
_diffrn_ambient_temperature 90
#These two values have been output from a single CSD field.
_refine_ls_R_factor_gt 0.0383
_refine_ls_wR_factor_gt 0.0383
_symmetry_cell_setting cubic
_symmetry_space_group_name_H-M 'I -4 3 d'
_symmetry_Int_Tables_number 220
loop_
_symmetry_equiv_pos_site_id
_symmetry_equiv_pos_as_xyz
1 x,y,z
2 x,-y,1/2-z
3 -x,1/2-y,z
4 -x,1/2+y,1/2-z
5 1/4+y,3/4-x,1/4-z
6 1/4-y,3/4-x,3/4+z
7 3/4-y,3/4+x,1/4-z
8 3/4+y,3/4+x,3/4+z
9 y,z,x
10 -y,1/2-z,x
11 y,-z,1/2-x
12 -y,1/2+z,1/2-x
13 1/4+z,3/4-y,1/4-x
14 1/4+z,1/4+y,1/4+x
15 3/4-z,3/4+y,1/4-x
16 3/4-z,1/4-y,1/4+x
17 z,x,y
18 1/2-z,x,-y
19 -z,1/2-x,y
20 1/2+z,1/2-x,-y
21 3/4+x,3/4+z,3/4+y
22 3/4+x,1/4-z,3/4-y
23 3/4-x,3/4+z,1/4-y
24 1/4-x,3/4-z,3/4+y
25 1/2+x,1/2+y,1/2+z
26 1/2+x,1/2-y,-z
27 1/2-x,-y,1/2+z
28 1/2-x,y,-z
29 3/4+y,1/4-x,3/4-z
30 3/4-y,1/4-x,1/4+z
31 1/4-y,1/4+x,3/4-z
32 1/4+y,1/4+x,1/4+z
33 1/2+y,1/2+z,1/2+x
34 1/2-y,-z,1/2+x
35 1/2+y,1/2-z,-x
36 1/2-y,z,-x
37 3/4+z,1/4-y,3/4-x
38 3/4+z,3/4+y,3/4+x
39 1/4-z,1/4+y,3/4-x
40 1/4-z,3/4-y,3/4+x
41 1/2+z,1/2+x,1/2+y
42 -z,1/2+x,1/2-y
43 1/2-z,-x,1/2+y
44 z,-x,1/2-y
45 1/4+x,1/4+z,1/4+y
46 1/4+x,3/4-z,1/4-y
47 1/4-x,1/4+z,3/4-y
48 3/4-x,1/4-z,1/4+y
_cell_length_a 29.7864(3)
_cell_length_b 29.7864(3)
_cell_length_c 29.7864(3)
_cell_angle_alpha 90
_cell_angle_beta 90
_cell_angle_gamma 90
_cell_formula_units_Z 16
loop_
_atom_type_symbol
_atom_type_radius_bond
C 0.68
H 0.23
Cu 1.19
I 1.40
P 1.05
loop_
_atom_site_label
_atom_site_type_symbol
_atom_site_fract_x
_atom_site_fract_y
_atom_site_fract_z
C1 C 0.49555(18) 0.53371(17) 0.17472(17)
H1 H 0.46490 0.53520 0.16880
C2 C 0.44091(18) 0.44235(17) 0.15659(16)
C3 C 0.56032(19) 0.3357(2) 0.1102(2)
H2 H 0.56890 0.31790 0.08610
C4 C 0.5160(2) 0.56781(18) 0.19841(18)
H3 H 0.49900 0.59150 0.20950
C5 C 0.43863(18) 0.4453(2) 0.20335(18)
H4 H 0.46290 0.45690 0.21930
C6 C 0.40360(18) 0.42558(18) 0.1341(2)
H5 H 0.40390 0.42370 0.10300
C7 C 0.52419(18) 0.40287(18) 0.13773(18)
C8 C 0.5620(2) 0.56666(19) 0.20573(18)
H6 H 0.57610 0.58970 0.22140
C9 C 0.52013(17) 0.49705(17) 0.15954(17)
C10 C 0.3661(2) 0.41162(19) 0.1576(2)
H7 H 0.34150 0.40030 0.14210
C11 C 0.53865(18) 0.37626(18) 0.10290(19)
H8 H 0.53370 0.38570 0.07360
C12 C 0.5864(2) 0.53097(19) 0.1894(2)
H9 H 0.61730 0.53020 0.19390
C13 C 0.64124(17) 0.42989(17) -0.07601(17)
C14 C 0.5557(2) 0.3488(2) 0.1892(2)
H10 H 0.56130 0.34000 0.21860
C15 C 0.5691(2) 0.32205(19) 0.1539(2)
H11 H 0.58400 0.29510 0.15930
C16 C 0.4014(2) 0.4315(2) 0.2259(2)
H12 H 0.40060 0.43370 0.25700
C17 C 0.36485(19) 0.41437(19) 0.2036(2)
H13 H 0.33970 0.40480 0.21930
C18 C 0.5337(2) 0.3891(2) 0.1807(2)
H14 H 0.52530 0.40720 0.20480
C19 C 0.67395(18) 0.39725(18) -0.08414(17)
H15 H 0.66550 0.36890 -0.09400
C20 C 0.71910(18) 0.40702(18) -0.07758(18)
H16 H 0.74060 0.38500 -0.08270
C21 C 0.73200(18) 0.4488(2) -0.06368(18)
H17 H 0.76220 0.45490 -0.05880
C22 C 0.70020(18) 0.48212(19) -0.05677(19)
H18 H 0.70910 0.51070 -0.04790
C23 C 0.56585(17) 0.49620(19) 0.16640(18)
H19 H 0.58290 0.47230 0.15560
C24 C 0.65462(18) 0.47233(18) -0.06322(18)
H20 H 0.63320 0.49460 -0.05880
I1 I 0.579120(11) 0.491348(11) 0.038088(11)
I2 I 0.444893(11) 0.555107(11) 0.055107(11)
Cu1 Cu 0.53714(2) 0.46286(2) -0.03714(2)
Cu2 Cu 0.48834(2) 0.47653(2) 0.05395(2)
P1 P 0.49234(5) 0.45383(5) 0.12588(4)
P2 P 0.58113(4) 0.41887(4) -0.08113(4)
C1PA C 0.32528(18) 0.50445(17) 0.03371(17)
C1K C 0.46629(18) 0.67472(17) 0.00445(17)
H1PA H 0.33120 0.53510 0.03520
H1K H 0.46480 0.66880 0.03510
C2PA C 0.34341(18) 0.55909(17) -0.05765(16)
C2K C 0.55765(18) 0.65659(17) 0.05909(16)
C3PA C 0.38980(19) 0.43968(20) -0.1643(2)
C3K C 0.66430(19) 0.6102(2) -0.06032(20)
H2PA H 0.41390 0.43110 -0.18210
H2K H 0.68210 0.58610 -0.06890
C4PA C 0.30159(20) 0.48400(18) 0.06781(18)
C4K C 0.43219(20) 0.69841(18) -0.01600(18)
H3PA H 0.29050 0.50100 0.09150
H3K H 0.40850 0.70950 0.00100
C5PA C 0.29665(18) 0.56137(20) -0.05470(18)
C5K C 0.55470(18) 0.70335(20) 0.06137(18)
H4PA H 0.28070 0.53710 -0.04310
H4K H 0.54310 0.71930 0.03710
C6PA C 0.36590(18) 0.59640(18) -0.07442(20)
C6K C 0.57442(18) 0.63410(18) 0.0964(2)
H5PA H 0.39700 0.59610 -0.07630
H5K H 0.57630 0.60300 0.09610
C7PA C 0.36227(18) 0.47581(18) -0.09713(18)
C7K C 0.59713(18) 0.63773(18) -0.02419(18)
C8PA C 0.29427(20) 0.43800(19) 0.06666(18)
C8K C 0.43334(20) 0.70573(19) -0.06200(18)
H6PA H 0.27860 0.42390 0.08970
H6K H 0.41030 0.72140 -0.07610
C9PA C 0.34046(17) 0.47987(17) -0.00295(17)
C9K C 0.50295(17) 0.65954(17) -0.02013(17)
C10PA C 0.3424(2) 0.63390(19) -0.08838(20)
C10K C 0.58838(20) 0.65760(19) 0.1339(2)
H7PA H 0.35790 0.65850 -0.09970
H7K H 0.59970 0.64210 0.15850
C11PA C 0.39710(18) 0.46135(18) -0.12374(19)
C11K C 0.62374(18) 0.60290(18) -0.03865(19)
H8PA H 0.42640 0.46630 -0.11430
H8K H 0.61430 0.57360 -0.03370
C12PA C 0.3106(2) 0.41360(19) 0.03097(20)
C12K C 0.46903(20) 0.68940(19) -0.0864(2)
H9PA H 0.30610 0.38270 0.03020
H9K H 0.46980 0.69390 -0.11730
C13PA C 0.57601(17) 0.35876(17) -0.07011(17)
C13K C 0.57011(17) 0.42399(17) -0.14124(17)
C14PA C 0.3108(2) 0.4443(2) -0.1512(2)
C14K C 0.6512(2) 0.6892(2) -0.0557(2)
H10PA H 0.28140 0.43870 -0.16000
H10K H 0.66000 0.71860 -0.06130
C15PA C 0.3461(2) 0.43090(19) -0.17795(20)
C15K C 0.67795(20) 0.65390(19) -0.0691(2)
H11PA H 0.34070 0.41600 -0.20490
H11K H 0.70490 0.65930 -0.08400
C16PA C 0.2741(2) 0.5986(2) -0.0685(2)
C16K C 0.5685(2) 0.7259(2) 0.0986(2)
H12PA H 0.24300 0.59940 -0.06630
H12K H 0.56630 0.75700 0.09940
C17PA C 0.29640(19) 0.63515(19) -0.08563(20)
C17K C 0.58563(19) 0.70360(19) 0.13515(20)
H13PA H 0.28070 0.66030 -0.09520
H13K H 0.59520 0.71930 0.16030
C18PA C 0.3193(2) 0.4663(2) -0.1109(2)
C18K C 0.6109(2) 0.6807(2) -0.0337(2)
H14PA H 0.29520 0.47470 -0.09280
H14K H 0.59280 0.70480 -0.02530
C19PA C 0.58414(18) 0.32605(18) -0.10275(17)
C19K C 0.60275(18) 0.41586(18) -0.17395(17)
H15PA H 0.59400 0.33450 -0.13110
H15K H 0.63110 0.40600 -0.16550
C20PA C 0.57758(18) 0.28090(18) -0.09298(18)
C20K C 0.59298(18) 0.42242(18) -0.21910(18)
H16PA H 0.58270 0.25940 -0.11500
H16K H 0.61500 0.41730 -0.24060
C21PA C 0.56368(18) 0.2680(2) -0.05120(18)
C21K C 0.55120(18) 0.43632(20) -0.23200(18)
H17PA H 0.55880 0.23780 -0.04510
H17K H 0.54510 0.44120 -0.26220
C22PA C 0.55677(18) 0.29980(19) -0.01788(19)
C22K C 0.51788(18) 0.44323(19) -0.20020(19)
H18PA H 0.54790 0.29090 0.01070
H18K H 0.48930 0.45210 -0.20910
C23PA C 0.33360(17) 0.43415(19) -0.00380(18)
C23K C 0.50380(17) 0.66640(19) -0.06585(18)
H19PA H 0.34440 0.41710 -0.02770
H19K H 0.52770 0.65560 -0.08290
C24PA C 0.56322(18) 0.34538(18) -0.02767(18)
C24K C 0.52767(18) 0.43678(18) -0.15462(18)
H20PA H 0.55880 0.36680 -0.00540
H20K H 0.50540 0.44120 -0.13320
I1PA I 0.461912(11) 0.420880(11) -0.008652(11)
I1K I 0.508652(11) 0.538088(11) -0.079120(11)
Cu2PA Cu 0.44605(2) 0.51166(2) -0.02347(2)
Cu2K Cu 0.52347(2) 0.55395(2) 0.01166(2)
P1PA P 0.37412(5) 0.50766(5) -0.04617(4)
P1K P 0.54617(5) 0.62588(5) 0.00766(4)
#END

data_CSD_CIF_DEWJUK19
_audit_creation_date 2012-03-05
_audit_creation_method CSD-ConQuest-V1
_database_code_CSD DEWJUK19
_database_code_depnum_ccdc_archive 'CCDC 838121'
_chemical_formula_sum 'C72 H60 Cu4 I4 P4'
_chemical_formula_moiety
;
C72 H60 Cu4 I4 P4
;
_journal_coden_Cambridge 222
_journal_volume 41
_journal_year 2012
_journal_page_first 531
_journal_name_full 'Dalton Trans. '
loop_
_publ_author_name
"L.Maini"
"D.Braga"
"P.P.Mazzeo"
"B.Ventura"
_chemical_name_systematic
;
tetrakis(\m~3~-Iodo)-tetrakis(triphenylphosphine)-tetra-copper(i)
;
_cell_volume  27136.038
_exptl_crystal_colour 'colorless'
_exptl_crystal_density_diffrn 1.773
_exptl_special_details
;
cubic polymorph

;
_exptl_crystal_description 'prism'
_diffrn_ambient_temperature 293
#These two values have been output from a single CSD field.
_refine_ls_R_factor_gt 0.0402
_refine_ls_wR_factor_gt 0.0402
_symmetry_cell_setting cubic
_symmetry_space_group_name_H-M 'I -4 3 d'
_symmetry_Int_Tables_number 220
loop_
_symmetry_equiv_pos_site_id
_symmetry_equiv_pos_as_xyz
1 x,y,z
2 x,-y,1/2-z
3 -x,1/2-y,z
4 -x,1/2+y,1/2-z
5 1/4+y,3/4-x,1/4-z
6 1/4-y,3/4-x,3/4+z
7 3/4-y,3/4+x,1/4-z
8 3/4+y,3/4+x,3/4+z
9 y,z,x
10 -y,1/2-z,x
11 y,-z,1/2-x
12 -y,1/2+z,1/2-x
13 1/4+z,3/4-y,1/4-x
14 1/4+z,1/4+y,1/4+x
15 3/4-z,3/4+y,1/4-x
16 3/4-z,1/4-y,1/4+x
17 z,x,y
18 1/2-z,x,-y
19 -z,1/2-x,y
20 1/2+z,1/2-x,-y
21 3/4+x,3/4+z,3/4+y
22 3/4+x,1/4-z,3/4-y
23 3/4-x,3/4+z,1/4-y
24 1/4-x,3/4-z,3/4+y
25 1/2+x,1/2+y,1/2+z
26 1/2+x,1/2-y,-z
27 1/2-x,-y,1/2+z
28 1/2-x,y,-z
29 3/4+y,1/4-x,3/4-z
30 3/4-y,1/4-x,1/4+z
31 1/4-y,1/4+x,3/4-z
32 1/4+y,1/4+x,1/4+z
33 1/2+y,1/2+z,1/2+x
34 1/2-y,-z,1/2+x
35 1/2+y,1/2-z,-x
36 1/2-y,z,-x
37 3/4+z,1/4-y,3/4-x
38 3/4+z,3/4+y,3/4+x
39 1/4-z,1/4+y,3/4-x
40 1/4-z,3/4-y,3/4+x
41 1/2+z,1/2+x,1/2+y
42 -z,1/2+x,1/2-y
43 1/2-z,-x,1/2+y
44 z,-x,1/2-y
45 1/4+x,1/4+z,1/4+y
46 1/4+x,3/4-z,1/4-y
47 1/4-x,1/4+z,3/4-y
48 3/4-x,1/4-z,1/4+y
_cell_length_a 30.0503(6)
_cell_length_b 30.0503(6)
_cell_length_c 30.0503(6)
_cell_angle_alpha 90
_cell_angle_beta 90
_cell_angle_gamma 90
_cell_formula_units_Z 16
loop_
_atom_type_symbol
_atom_type_radius_bond
C 0.68
H 0.23
Cu 1.25
I 1.40
P 1.05
loop_
_atom_site_label
_atom_site_type_symbol
_atom_site_fract_x
_atom_site_fract_y
_atom_site_fract_z
C1 C 1.01845(19) 0.50408(15) 0.15938(16)
C2 C 0.99370(16) 0.46797(18) 0.17433(17)
H1 H 0.96320 0.46690 0.16920
C3 C 1.0145(2) 0.43342(15) 0.19695(18)
H2 H 0.99800 0.40930 0.20700
C4 C 1.0601(3) 0.4350(2) 0.20462(18)
H3 H 1.07410 0.41190 0.21980
C5 C 1.08488(16) 0.4711(3) 0.1897(2)
H4 H 1.11540 0.47210 0.19480
C6 C 1.06404(19) 0.50564(19) 0.16706(19)
H5 H 1.08060 0.52980 0.15710
C7 C 0.94040(17) 0.55774(17) 0.15640(17)
C8 C 0.9044(2) 0.57392(19) 0.13225(16)
H6 H 0.90600 0.57570 0.10140
C9 C 0.86604(17) 0.58748(19) 0.1542(3)
H7 H 0.84200 0.59830 0.13810
C10 C 0.86365(19) 0.58485(19) 0.2004(3)
H8 H 0.83800 0.59390 0.21510
C11 C 0.8996(3) 0.5687(2) 0.22449(17)
H9 H 0.89800 0.56690 0.25530
C12 C 0.9380(2) 0.5551(2) 0.20252(17)
H10 H 0.96210 0.54430 0.21870
C13 C 1.02359(19) 0.59685(15) 0.1386(2)
C14 C 1.03661(19) 0.6236(2) 0.10313(16)
H11 H 1.03050 0.61480 0.07410
C15 C 1.05880(19) 0.66336(19) 0.1111(2)
H12 H 1.06750 0.68120 0.08740
C16 C 1.0680(2) 0.67644(17) 0.1545(3)
H13 H 1.08280 0.70310 0.15980
C17 C 1.0550(3) 0.6497(2) 0.18994(19)
H14 H 1.06110 0.65850 0.21900
C18 C 1.0328(2) 0.6099(2) 0.18198(17)
H15 H 1.02410 0.59210 0.20570
C19 C 1.13969(13) 0.56968(17) -0.07587(17)
C20 C 1.17160(18) 0.60244(14) -0.08280(17)
H16 H 1.16290 0.63100 -0.09090
C21 C 1.21647(16) 0.59247(19) -0.07760(19)
H17 H 1.23780 0.61440 -0.08220
C22 C 1.22943(14) 0.5498(2) -0.0655(2)
H18 H 1.25940 0.54310 -0.06200
C23 C 1.1975(2) 0.51700(16) -0.05856(19)
H19 H 1.20620 0.48840 -0.05050
C24 C 1.15264(18) 0.52696(15) -0.06376(19)
H20 H 1.13130 0.50500 -0.05910
I1 I 0.962345(16) 0.577905(16) -0.007881(16)
I2 I 0.945976(16) 0.445976(16) 0.054024(16)
Cu1 Cu 1.03719(3) 0.53719(3) -0.03719(3)
Cu2 Cu 0.98833(4) 0.52432(3) 0.05556(3)
P1 P 0.99209(7) 0.54690(7) 0.12680(6)
P2 P 1.08062(6) 0.58062(6) -0.08062(6)
C1HA C 1.00408(19) 0.34062(15) -0.01845(16)
C1OA C 0.84062(19) 0.51845(15) -0.00408(16)
C2HA C 0.96797(16) 0.32567(18) 0.00630(17)
C2OA C 0.82567(16) 0.49370(18) 0.03203(17)
H1HA H 0.96690 0.33080 0.03680
H1OA H 0.83080 0.46320 0.03310
C3HA C 0.93342(20) 0.30305(15) -0.01450(18)
C3OA C 0.80305(20) 0.51450(15) 0.06658(18)
H2HA H 0.90930 0.29300 0.00200
H2OA H 0.79300 0.49800 0.09070
C4HA C 0.9350(3) 0.29538(20) -0.06010(18)
C4OA C 0.79538(30) 0.5601(2) 0.06500(18)
H3HA H 0.91190 0.28020 -0.07410
H3OA H 0.78020 0.57410 0.08810
C5HA C 0.97110(16) 0.3103(3) -0.08488(20)
C5OA C 0.81030(16) 0.58488(30) 0.0289(2)
H4HA H 0.97210 0.30520 -0.11540
H4OA H 0.80520 0.61540 0.02790
C6HA C 1.00564(19) 0.33294(19) -0.06404(19)
C6OA C 0.83294(19) 0.56404(19) -0.00564(19)
H5HA H 1.02980 0.34290 -0.08060
H5OA H 0.84290 0.58060 -0.02980
C7HA C 1.05774(17) 0.34360(17) 0.05960(17)
C7OA C 0.84360(17) 0.44040(17) -0.05774(17)
C8HA C 1.07392(20) 0.36775(19) 0.09560(16)
C8OA C 0.86775(20) 0.40440(19) -0.07392(16)
H6HA H 1.07570 0.39860 0.09400
H6OA H 0.89860 0.40600 -0.07570
C9HA C 1.08748(17) 0.34580(19) 0.13396(30)
C9OA C 0.84580(17) 0.36604(19) -0.08748(30)
H7HA H 1.09830 0.36190 0.15800
H7OA H 0.86190 0.34200 -0.09830
C10HA C 1.08485(19) 0.29960(19) 0.13635(30)
C10OA C 0.79960(19) 0.36365(19) -0.08485(30)
H8HA H 1.09390 0.28490 0.16200
H8OA H 0.78490 0.33800 -0.09390
C11HA C 1.0687(3) 0.27551(20) 0.10040(17)
C11OA C 0.77551(30) 0.3996(2) -0.06870(17)
H9HA H 1.06690 0.24470 0.10200
H9OA H 0.74470 0.39800 -0.06690
C12HA C 1.0551(2) 0.29748(20) 0.06200(17)
C12OA C 0.79748(20) 0.4380(2) -0.05510(17)
H10HA H 1.04430 0.28130 0.03790
H10OA H 0.78130 0.46210 -0.04430
C13HA C 1.09685(19) 0.36140(15) -0.02359(20)
C13OA C 0.86140(19) 0.52359(15) -0.09685(20)
C14HA C 1.12360(19) 0.39687(20) -0.03661(16)
C14OA C 0.89687(19) 0.53661(20) -0.12360(16)
H11HA H 1.11480 0.42590 -0.03050
H11OA H 0.92590 0.53050 -0.11480
C15HA C 1.16336(19) 0.38890(19) -0.0588(2)
C15OA C 0.88890(19) 0.55880(19) -0.16336(20)
H12HA H 1.18120 0.41260 -0.06750
H12OA H 0.91260 0.56750 -0.18120
C16HA C 1.17644(20) 0.34550(17) -0.0680(3)
C16OA C 0.8455(2) 0.56800(17) -0.17644(30)
H13HA H 1.20310 0.34020 -0.08280
H13OA H 0.84020 0.58280 -0.20310
C17HA C 1.1497(3) 0.31006(20) -0.05500(19)
C17OA C 0.81006(30) 0.5550(2) -0.14970(19)
H14HA H 1.15850 0.28100 -0.06110
H14OA H 0.78100 0.56110 -0.15850
C18HA C 1.1099(2) 0.31802(20) -0.03280(17)
C18OA C 0.81802(20) 0.5328(2) -0.10990(17)
H15HA H 1.09210 0.29430 -0.02410
H15OA H 0.79430 0.52410 -0.09210
C19OA C 1.07587(13) 0.63969(17) -0.06968(17)
C19HA C 1.06968(13) 0.57587(17) -0.13969(17)
C20OA C 1.08280(18) 0.67160(14) -0.10244(17)
C20HA C 1.10244(18) 0.58280(14) -0.17160(17)
H16OA H 1.09090 0.66290 -0.13100
H16HA H 1.13100 0.59090 -0.16290
C21OA C 1.07760(16) 0.71647(19) -0.09247(19)
C21HA C 1.09247(16) 0.57760(19) -0.21647(19)
H17OA H 1.08220 0.73780 -0.11440
H17HA H 1.11440 0.58220 -0.23780
C22OA C 1.06550(14) 0.72943(20) -0.0498(2)
C22HA C 1.04980(14) 0.5655(2) -0.22943(20)
H18OA H 1.06200 0.75940 -0.04310
H18HA H 1.04310 0.56200 -0.25940
C23OA C 1.05856(20) 0.69750(16) -0.01700(19)
C23HA C 1.0170(2) 0.55856(16) -0.19750(19)
H19OA H 1.05050 0.70620 0.01160
H19HA H 0.98840 0.55050 -0.20620
C24OA C 1.06376(18) 0.65264(15) -0.02696(19)
C24HA C 1.02696(18) 0.56376(15) -0.15264(19)
H20OA H 1.05910 0.63130 -0.00500
H20HA H 1.00500 0.55910 -0.13130
I1OA I 1.007881(16) 0.462345(16) -0.077905(16)
I1HA I 1.077905(16) 0.507881(16) 0.037655(16)
Cu2OA Cu 0.94444(4) 0.48833(3) -0.02432(3)
Cu2HA Cu 1.02432(4) 0.44444(3) 0.01167(3)
P1HA P 1.04690(7) 0.37320(7) 0.00791(6)
P1OA P 0.87320(7) 0.49209(7) -0.04690(6)
#END

data_CSD_CIF_DEWJUK21
_audit_creation_date 2019-05-14
_audit_creation_method CSD-ConQuest-V1
_database_code_CSD DEWJUK21
_database_code_depnum_ccdc_archive 'CCDC 1903859'
_chemical_formula_sum 'C72 H60 Cu4 I4 P4'
_chemical_formula_moiety
;
C72 H60 Cu4 I4 P4
;
_journal_coden_Cambridge 222
_journal_volume 48
_journal_year 2019
_journal_page_first 7899
_journal_name_full 'Dalton Trans. '
loop_
_publ_author_name
"B.Huitorel"
"R.Utrera-Melero"
"F.Massuyeau"
"J.-Y.Mevelec"
"B.Baptiste"
"Alain Polian"
"T.Gacoin"
"C.Martineau-Corcos"
"S.Perruchas"
_chemical_name_systematic
;
tetrakis(\m-iodo)-tetrakis(triphenylphosphine)-tetra-copper(i)
;
_cell_volume  26986.772
_exptl_crystal_colour 'light colorless'
_exptl_crystal_density_diffrn 1.783
_exptl_crystal_description 'prism'
_diffrn_ambient_temperature 300
_diffrn_ambient_pressure 100000.0
#These two values have been output from a single CSD field.
_refine_ls_R_factor_gt 0.0481
_refine_ls_wR_factor_gt 0.0481
_symmetry_cell_setting cubic
_symmetry_space_group_name_H-M 'I -4 3 d'
_symmetry_Int_Tables_number 220
loop_
_symmetry_equiv_pos_site_id
_symmetry_equiv_pos_as_xyz
1 x,y,z
2 1/2-x,-y,1/2+z
3 -x,1/2+y,1/2-z
4 1/2+x,1/2-y,-z
5 z,x,y
6 1/2+z,1/2-x,-y
7 1/2-z,-x,1/2+y
8 -z,1/2+x,1/2-y
9 y,z,x
10 -y,1/2+z,1/2-x
11 1/2+y,1/2-z,-x
12 1/2-y,-z,1/2+x
13 1/4+y,1/4+x,1/4+z
14 1/4-y,3/4-x,3/4+z
15 3/4+y,1/4-x,3/4-z
16 3/4-y,3/4+x,1/4-z
17 1/4+x,1/4+z,1/4+y
18 3/4-x,3/4+z,1/4-y
19 1/4-x,3/4-z,3/4+y
20 3/4+x,1/4-z,3/4-y
21 1/4+z,1/4+y,1/4+x
22 3/4+z,1/4-y,3/4-x
23 3/4-z,3/4+y,1/4-x
24 1/4-z,3/4-y,3/4+x
25 1/2+x,1/2+y,1/2+z
26 -x,1/2-y,z
27 1/2-x,y,-z
28 x,-y,1/2-z
29 1/2+z,1/2+x,1/2+y
30 z,-x,1/2-y
31 -z,1/2-x,y
32 1/2-z,x,-y
33 1/2+y,1/2+z,1/2+x
34 1/2-y,z,-x
35 y,-z,1/2-x
36 -y,1/2-z,x
37 3/4+y,3/4+x,3/4+z
38 3/4-y,1/4-x,1/4+z
39 1/4+y,3/4-x,1/4-z
40 1/4-y,1/4+x,3/4-z
41 3/4+x,3/4+z,3/4+y
42 1/4-x,1/4+z,3/4-y
43 3/4-x,1/4-z,1/4+y
44 1/4+x,3/4-z,1/4-y
45 3/4+z,3/4+y,3/4+x
46 1/4+z,3/4-y,1/4-x
47 1/4-z,1/4+y,3/4-x
48 3/4-z,1/4-y,1/4+x
_cell_length_a 29.9951(15)
_cell_length_b 29.9951(15)
_cell_length_c 29.9951(15)
_cell_angle_alpha 90
_cell_angle_beta 90
_cell_angle_gamma 90
_cell_formula_units_Z 16
loop_
_atom_type_symbol
_atom_type_radius_bond
C 0.68
H 0.23
Cu 1.32
I 1.40
P 1.05
loop_
_atom_site_label
_atom_site_type_symbol
_atom_site_fract_x
_atom_site_fract_y
_atom_site_fract_z
I1 I 0.67138(3) 0.21184(3) 0.75812(3)
I2 I 0.80441(3) 0.19559(3) 0.69559(3)
Cu1 Cu 0.71294(6) 0.28706(6) 0.78706(6)
Cu2 Cu 0.72560(7) 0.23814(8) 0.69494(7)
P1 P 0.66921(13) 0.33079(13) 0.83079(13)
P2 P 0.70293(14) 0.24195(14) 0.62335(13)
C1 C 0.7823(6) 0.2452(6) 0.5751(5)
H1 H 0.78330 0.21450 0.57960
C2 C 0.6913(5) 0.1908(6) 0.5931(5)
C3 C 0.6759(6) 0.1534(6) 0.6151(6)
H2 H 0.67550 0.15370 0.64610
C4 C 0.5770(5) 0.3326(5) 0.8513(6)
H3 H 0.58510 0.34150 0.87980
C5 C 0.7465(5) 0.2690(5) 0.5906(5)
C6 C 0.6820(8) 0.1499(7) 0.5249(7)
H4 H 0.68580 0.14860 0.49420
C7 C 0.6258(6) 0.2870(6) 0.6451(6)
H5 H 0.63430 0.28120 0.67430
C8 C 0.8176(6) 0.2664(8) 0.5525(6)
H6 H 0.84180 0.25000 0.54250
C9 C 0.6644(7) 0.1151(7) 0.5462(9)
H7 H 0.65430 0.09050 0.53030
C10 C 0.6613(6) 0.1161(7) 0.5939(9)
H8 H 0.64970 0.09210 0.60980
C11 C 0.7806(6) 0.3350(7) 0.5608(7)
H9 H 0.77940 0.36570 0.55620
C12 C 0.5987(7) 0.3048(9) 0.5610(8)
H10 H 0.59040 0.31120 0.53180
C13 C 0.6945(7) 0.1874(6) 0.5475(6)
H11 H 0.70550 0.21150 0.53140
C14 C 0.5725(6) 0.3175(7) 0.5948(9)
H12 H 0.54580 0.33220 0.58940
C15 C 0.5513(6) 0.3073(6) 0.7671(6)
H13 H 0.54300 0.29840 0.73860
C16 C 0.6103(5) 0.3258(5) 0.8198(5)
C17 C 0.5314(6) 0.3266(6) 0.8417(6)
H14 H 0.50980 0.33100 0.86360
C18 C 0.5954(6) 0.3136(5) 0.7768(6)
H15 H 0.61630 0.30980 0.75420
C19 C 0.8159(7) 0.3116(8) 0.5455(7)
H16 H 0.83880 0.32590 0.53040
C20 C 0.6529(5) 0.2744(5) 0.6119(6)
C21 C 0.5194(6) 0.3140(6) 0.7987(6)
H17 H 0.48950 0.31000 0.79160
C22 C 0.7469(7) 0.3146(6) 0.5827(6)
H18 H 0.72310 0.33170 0.59290
C23 C 0.6383(7) 0.2820(9) 0.5691(6)
H19 H 0.65510 0.27180 0.54520
C24 C 0.5858(7) 0.3084(8) 0.6375(10)
H20 H 0.56790 0.31660 0.66140
C4F C 0.6487(5) 0.4230(5) 0.8326(6)
H3F H 0.62020 0.41490 0.84150
C15F C 0.7329(6) 0.4487(6) 0.8073(6)
H13F H 0.76140 0.45700 0.79840
C16F C 0.6802(5) 0.3897(5) 0.8258(5)
C17F C 0.6583(6) 0.4686(6) 0.8266(6)
H14F H 0.63640 0.49020 0.83100
C18F C 0.7232(6) 0.4046(5) 0.8136(6)
H15F H 0.74580 0.38370 0.80980
C21F C 0.7013(6) 0.4806(6) 0.8140(6)
H17F H 0.70840 0.51050 0.81000
C4I C 0.6674(5) 0.3513(5) 0.9230(6)
H3I H 0.65850 0.37980 0.91490
C15I C 0.6927(6) 0.2671(6) 0.9487(6)
H13I H 0.70160 0.23860 0.95700
C16I C 0.6742(5) 0.3198(5) 0.8897(5)
C17I C 0.6734(6) 0.3417(6) 0.9686(6)
H14I H 0.66900 0.36360 0.99020
C18I C 0.6864(6) 0.2768(5) 0.9046(6)
H15I H 0.69020 0.25420 0.88370
C21I C 0.6860(6) 0.2987(6) 0.9806(6)
H17I H 0.69000 0.29160 1.01050
I1F I 0.74188(3) 0.32862(3) 0.71184(3)
Cu2F Cu 0.80506(7) 0.27440(8) 0.73814(7)
P2F P 0.87665(14) 0.29707(14) 0.74195(13)
C1F C 0.9249(6) 0.2177(6) 0.7452(5)
H1F H 0.92040 0.21670 0.71450
C2F C 0.9069(5) 0.3087(6) 0.6908(5)
C3F C 0.8849(6) 0.3241(6) 0.6534(6)
H2F H 0.85390 0.32450 0.65370
C5F C 0.9094(5) 0.2535(5) 0.7690(5)
C6F C 0.9751(8) 0.3180(7) 0.6499(7)
H4F H 1.00580 0.31420 0.64860
C7F C 0.8549(6) 0.3742(6) 0.7870(6)
H5F H 0.82570 0.36570 0.78120
C8F C 0.9475(6) 0.1824(8) 0.7664(6)
H6F H 0.95750 0.15820 0.75000
C9F C 0.9538(7) 0.3356(7) 0.6151(9)
H7F H 0.96970 0.34570 0.59050
C10F C 0.9061(6) 0.3387(7) 0.6161(9)
H8F H 0.89020 0.35030 0.59210
C11F C 0.9392(6) 0.2194(7) 0.8350(7)
H9F H 0.94380 0.22060 0.86570
C12F C 0.9390(7) 0.4013(9) 0.8048(8)
H10F H 0.96820 0.40960 0.81120
C13F C 0.9525(7) 0.3055(6) 0.6874(6)
H11F H 0.96860 0.29450 0.71150
C14F C 0.9052(6) 0.4275(7) 0.8175(9)
H12F H 0.91060 0.45420 0.83220
C19F C 0.9545(7) 0.1841(8) 0.8116(7)
H16F H 0.96960 0.16120 0.82590
C20F C 0.8881(5) 0.3471(5) 0.7744(6)
C22F C 0.9173(7) 0.2531(6) 0.8146(6)
H18F H 0.90710 0.27690 0.83170
C23F C 0.9309(7) 0.3617(9) 0.7820(6)
H19F H 0.95480 0.34490 0.77180
C24F C 0.8625(7) 0.4142(8) 0.8084(10)
H20F H 0.83860 0.43210 0.81660
I1I I 0.78816(3) 0.25812(3) 0.82862(3)
Cu2I Cu 0.76186(7) 0.19494(8) 0.77440(7)
P2I P 0.75805(14) 0.12335(14) 0.79707(13)
C1I C 0.7548(6) 0.0751(6) 0.7177(5)
H1I H 0.78550 0.07960 0.71670
C2I C 0.8092(5) 0.0931(6) 0.8087(5)
C3I C 0.8466(6) 0.1151(6) 0.8241(6)
H2I H 0.84630 0.14610 0.82450
C5I C 0.7310(5) 0.0906(5) 0.7535(5)
C6I C 0.8501(8) 0.0249(7) 0.8180(7)
H4I H 0.85140 -0.00580 0.81420
C7I C 0.7130(6) 0.1451(6) 0.8742(6)
H5I H 0.71880 0.17430 0.86570
C8I C 0.7336(6) 0.0525(8) 0.6824(6)
H6I H 0.75000 0.04250 0.65820
C9I C 0.8849(7) 0.0462(7) 0.8356(9)
H7I H 0.90950 0.03030 0.84570
C10I C 0.8839(6) 0.0939(7) 0.8387(9)
H8I H 0.90790 0.10980 0.85030
C11I C 0.6650(6) 0.0608(7) 0.7194(7)
H9I H 0.63430 0.05620 0.72060
C12I C 0.6952(7) 0.0610(9) 0.9013(8)
H10I H 0.68880 0.03180 0.90960
C13I C 0.8126(7) 0.0475(6) 0.8055(6)
H11I H 0.78850 0.03140 0.79450
C14I C 0.6825(6) 0.0948(7) 0.9275(9)
H12I H 0.66780 0.08940 0.95420
C19I C 0.6884(7) 0.0455(8) 0.6841(7)
H16I H 0.67410 0.03040 0.66120
C20I C 0.7256(5) 0.1119(5) 0.8471(6)
C22I C 0.6854(7) 0.0827(6) 0.7531(6)
H18I H 0.66830 0.09290 0.77690
C23I C 0.7180(7) 0.0691(9) 0.8617(6)
H19I H 0.72820 0.04520 0.84490
C24I C 0.6916(7) 0.1375(8) 0.9142(10)
H20I H 0.68340 0.16140 0.93210
#END

data_CSD_CIF_DEWJUK22
_audit_creation_date 2019-05-14
_audit_creation_method CSD-ConQuest-V1
_database_code_CSD DEWJUK22
_database_code_depnum_ccdc_archive 'CCDC 1903860'
_chemical_formula_sum 'C72 H60 Cu4 I4 P4'
_chemical_formula_moiety
;
C72 H60 Cu4 I4 P4
;
_journal_coden_Cambridge 222
_journal_volume 48
_journal_year 2019
_journal_page_first 7899
_journal_name_full 'Dalton Trans. '
loop_
_publ_author_name
"B.Huitorel"
"R.Utrera-Melero"
"F.Massuyeau"
"J.-Y.Mevelec"
"B.Baptiste"
"Alain Polian"
"T.Gacoin"
"C.Martineau-Corcos"
"S.Perruchas"
_chemical_name_systematic
;
tetrakis(\m-iodo)-tetrakis(triphenylphosphine)-tetra-copper(i)
;
_cell_volume  26389.599
_exptl_crystal_colour 'light colorless'
_exptl_crystal_density_diffrn 1.823
_exptl_crystal_description 'prism'
_diffrn_ambient_temperature 300
_diffrn_ambient_pressure 150000.0
#These two values have been output from a single CSD field.
_refine_ls_R_factor_gt 0.0445
_refine_ls_wR_factor_gt 0.0445
_symmetry_cell_setting cubic
_symmetry_space_group_name_H-M 'I -4 3 d'
_symmetry_Int_Tables_number 220
loop_
_symmetry_equiv_pos_site_id
_symmetry_equiv_pos_as_xyz
1 x,y,z
2 1/2-x,-y,1/2+z
3 -x,1/2+y,1/2-z
4 1/2+x,1/2-y,-z
5 z,x,y
6 1/2+z,1/2-x,-y
7 1/2-z,-x,1/2+y
8 -z,1/2+x,1/2-y
9 y,z,x
10 -y,1/2+z,1/2-x
11 1/2+y,1/2-z,-x
12 1/2-y,-z,1/2+x
13 1/4+y,1/4+x,1/4+z
14 1/4-y,3/4-x,3/4+z
15 3/4+y,1/4-x,3/4-z
16 3/4-y,3/4+x,1/4-z
17 1/4+x,1/4+z,1/4+y
18 3/4-x,3/4+z,1/4-y
19 1/4-x,3/4-z,3/4+y
20 3/4+x,1/4-z,3/4-y
21 1/4+z,1/4+y,1/4+x
22 3/4+z,1/4-y,3/4-x
23 3/4-z,3/4+y,1/4-x
24 1/4-z,3/4-y,3/4+x
25 1/2+x,1/2+y,1/2+z
26 -x,1/2-y,z
27 1/2-x,y,-z
28 x,-y,1/2-z
29 1/2+z,1/2+x,1/2+y
30 z,-x,1/2-y
31 -z,1/2-x,y
32 1/2-z,x,-y
33 1/2+y,1/2+z,1/2+x
34 1/2-y,z,-x
35 y,-z,1/2-x
36 -y,1/2-z,x
37 3/4+y,3/4+x,3/4+z
38 3/4-y,1/4-x,1/4+z
39 1/4+y,3/4-x,1/4-z
40 1/4-y,1/4+x,3/4-z
41 3/4+x,3/4+z,3/4+y
42 1/4-x,1/4+z,3/4-y
43 3/4-x,1/4-z,1/4+y
44 1/4+x,3/4-z,1/4-y
45 3/4+z,3/4+y,3/4+x
46 1/4+z,3/4-y,1/4-x
47 1/4-z,1/4+y,3/4-x
48 3/4-z,1/4-y,1/4+x
_cell_length_a 29.7722(18)
_cell_length_b 29.7722(18)
_cell_length_c 29.7722(18)
_cell_angle_alpha 90
_cell_angle_beta 90
_cell_angle_gamma 90
_cell_formula_units_Z 16
loop_
_atom_type_symbol
_atom_type_radius_bond
C 0.68
H 0.23
Cu 1.32
I 1.40
P 1.05
loop_
_atom_site_label
_atom_site_type_symbol
_atom_site_fract_x
_atom_site_fract_y
_atom_site_fract_z
I1 I -0.49176(3) -0.53831(3) -0.42098(3)
I2 I -0.55461(3) -0.55461(3) -0.55461(3)
Cu1 Cu -0.46301(7) -0.46301(7) -0.46301(7)
Cu2 Cu -0.47560(7) -0.55481(7) -0.51200(8)
P1 P -0.45281(14) -0.62665(13) -0.50779(14)
P2 P -0.41922(13) -0.41922(13) -0.41922(13)
C1 C -0.4412(5) -0.6568(5) -0.5595(6)
C2 C -0.3755(6) -0.6052(6) -0.4621(5)
H1 H -0.38420 -0.57570 -0.46770
C3 C -0.4025(5) -0.6387(5) -0.4758(5)
C4 C -0.5322(6) -0.6754(5) -0.5048(6)
H2 H -0.53310 -0.67150 -0.53580
C5 C -0.4266(5) -0.6341(6) -0.5968(6)
H3 H -0.42720 -0.60290 -0.59680
C6 C -0.4136(6) -0.7017(9) -0.6354(6)
H4 H -0.40330 -0.71670 -0.66080
C7 C -0.3981(6) -0.4168(5) -0.3267(5)
H5 H -0.36940 -0.40750 -0.33470
C8 C -0.4110(6) -0.6565(8) -0.6345(7)
H6 H -0.39900 -0.64070 -0.65870
C9 C -0.5304(7) -0.6890(7) -0.4137(7)
H7 H -0.52920 -0.69370 -0.38290
C10 C -0.4730(6) -0.4359(6) -0.3456(5)
H8 H -0.49570 -0.43890 -0.36680
C11 C -0.4951(5) -0.6597(5) -0.4811(5)
C12 C -0.4305(8) -0.7263(8) -0.6010(8)
H9 H -0.43250 -0.75740 -0.60300
C13 C -0.3487(8) -0.6886(8) -0.4461(8)
H10 H -0.33980 -0.71790 -0.44010
C14 C -0.3214(6) -0.6546(9) -0.4334(7)
H11 H -0.29360 -0.66040 -0.42040
C15 C -0.5681(6) -0.6967(6) -0.4834(7)
H12 H -0.59320 -0.70580 -0.49960
C16 C -0.4450(6) -0.7032(6) -0.5621(7)
H13 H -0.45710 -0.71920 -0.53820
C17 C -0.4086(6) -0.4229(6) -0.2812(5)
H14 H -0.38690 -0.41790 -0.25940
C18 C -0.4296(5) -0.4243(4) -0.3596(5)
C19 C -0.3888(7) -0.6816(6) -0.4673(8)
H15 H -0.40660 -0.70580 -0.47580
C20 C -0.5652(6) -0.7039(6) -0.4378(7)
H16 H -0.58810 -0.71950 -0.42340
C21 C -0.3354(8) -0.6129(9) -0.4401(7)
H17 H -0.31820 -0.58890 -0.43000
C22 C -0.4967(6) -0.6667(6) -0.4353(6)
H18 H -0.47320 -0.65540 -0.41810
C23 C -0.4825(7) -0.4431(6) -0.3005(7)
H19 H -0.51100 -0.45270 -0.29220
C24 C -0.4515(7) -0.4365(6) -0.2689(7)
H20 H -0.45860 -0.44100 -0.23880
C7D C -0.3267(6) -0.3981(5) -0.4168(5)
H5D H -0.33470 -0.36940 -0.40750
C10D C -0.3456(6) -0.4730(6) -0.4359(5)
H8D H -0.36680 -0.49570 -0.43890
C17D C -0.2812(6) -0.4086(6) -0.4229(5)
H14D H -0.25940 -0.38690 -0.41790
C18D C -0.3596(5) -0.4296(4) -0.4243(5)
C23D C -0.3005(7) -0.4825(6) -0.4431(7)
H19D H -0.29220 -0.51100 -0.45270
C24D C -0.2689(7) -0.4515(6) -0.4365(7)
H20D H -0.23880 -0.45860 -0.44100
C7H C -0.4168(6) -0.3267(5) -0.3981(5)
H5H H -0.40750 -0.33470 -0.36940
C10H C -0.4359(6) -0.3456(6) -0.4730(5)
H8H H -0.43890 -0.36680 -0.49570
C17H C -0.4229(6) -0.2812(6) -0.4086(5)
H14H H -0.41790 -0.25940 -0.38690
C18H C -0.4243(5) -0.3596(4) -0.4296(5)
C23H C -0.4431(7) -0.3005(6) -0.4825(7)
H19H H -0.45270 -0.29220 -0.51100
C24H C -0.4365(7) -0.2689(6) -0.4515(7)
H20H H -0.44100 -0.23880 -0.45860
I1D I -0.42098(3) -0.49176(3) -0.53831(3)
Cu2D Cu -0.51200(7) -0.47560(7) -0.55481(8)
P1D P -0.50779(14) -0.45281(13) -0.62665(14)
C1D C -0.5595(5) -0.4412(5) -0.6568(6)
C2D C -0.4621(6) -0.3755(6) -0.6052(5)
H1D H -0.46770 -0.38420 -0.57570
C3D C -0.4758(5) -0.4025(5) -0.6387(5)
C4D C -0.5048(6) -0.5322(5) -0.6754(6)
H2D H -0.53580 -0.53310 -0.67150
C5D C -0.5968(5) -0.4266(6) -0.6341(6)
H3D H -0.59680 -0.42720 -0.60290
C6D C -0.6354(6) -0.4136(9) -0.7017(6)
H4D H -0.66080 -0.40330 -0.71670
C8D C -0.6345(6) -0.4110(8) -0.6565(7)
H6D H -0.65870 -0.39900 -0.64070
C9D C -0.4137(7) -0.5304(7) -0.6890(7)
H7D H -0.38290 -0.52920 -0.69370
C11D C -0.4811(5) -0.4951(5) -0.6597(5)
C12D C -0.6010(8) -0.4305(8) -0.7263(8)
H9D H -0.60300 -0.43250 -0.75740
C13D C -0.4461(8) -0.3487(8) -0.6886(8)
H10D H -0.44010 -0.33980 -0.71790
C14D C -0.4334(6) -0.3214(9) -0.6546(7)
H11D H -0.42040 -0.29360 -0.66040
C15D C -0.4834(6) -0.5681(6) -0.6967(7)
H12D H -0.49960 -0.59320 -0.70580
C16D C -0.5621(6) -0.4450(6) -0.7032(7)
H13D H -0.53820 -0.45710 -0.71920
C19D C -0.4673(7) -0.3888(6) -0.6816(8)
H15D H -0.47580 -0.40660 -0.70580
C20D C -0.4378(6) -0.5652(6) -0.7039(7)
H16D H -0.42340 -0.58810 -0.71950
C21D C -0.4401(8) -0.3354(9) -0.6129(7)
H17D H -0.43000 -0.31820 -0.58890
C22D C -0.4353(6) -0.4967(6) -0.6667(6)
H18D H -0.41810 -0.47320 -0.65540
I1H I -0.53831(3) -0.42098(3) -0.49176(3)
Cu2H Cu -0.55481(7) -0.51200(7) -0.47560(8)
P1H P -0.62665(14) -0.50779(13) -0.45281(14)
C1H C -0.6568(5) -0.5595(5) -0.4412(6)
C2H C -0.6052(6) -0.4621(6) -0.3755(5)
H1H H -0.57570 -0.46770 -0.38420
C3H C -0.6387(5) -0.4758(5) -0.4025(5)
C4H C -0.6754(6) -0.5048(5) -0.5322(6)
H2H H -0.67150 -0.53580 -0.53310
C5H C -0.6341(5) -0.5968(6) -0.4266(6)
H3H H -0.60290 -0.59680 -0.42720
C6H C -0.7017(6) -0.6354(9) -0.4136(6)
H4H H -0.71670 -0.66080 -0.40330
C8H C -0.6565(6) -0.6345(8) -0.4110(7)
H6H H -0.64070 -0.65870 -0.39900
C9H C -0.6890(7) -0.4137(7) -0.5304(7)
H7H H -0.69370 -0.38290 -0.52920
C11H C -0.6597(5) -0.4811(5) -0.4951(5)
C12H C -0.7263(8) -0.6010(8) -0.4305(8)
H9H H -0.75740 -0.60300 -0.43250
C13H C -0.6886(8) -0.4461(8) -0.3487(8)
H10H H -0.71790 -0.44010 -0.33980
C14H C -0.6546(6) -0.4334(9) -0.3214(7)
H11H H -0.66040 -0.42040 -0.29360
C15H C -0.6967(6) -0.4834(6) -0.5681(7)
H12H H -0.70580 -0.49960 -0.59320
C16H C -0.7032(6) -0.5621(6) -0.4450(7)
H13H H -0.71920 -0.53820 -0.45710
C19H C -0.6816(7) -0.4673(6) -0.3888(8)
H15H H -0.70580 -0.47580 -0.40660
C20H C -0.7039(6) -0.4378(6) -0.5652(7)
H16H H -0.71950 -0.42340 -0.58810
C21H C -0.6129(8) -0.4401(9) -0.3354(7)
H17H H -0.58890 -0.43000 -0.31820
C22H C -0.6667(6) -0.4353(6) -0.4967(6)
H18H H -0.65540 -0.41810 -0.47320
#END

data_CSD_CIF_DEWJUK23
_audit_creation_date 2019-05-14
_audit_creation_method CSD-ConQuest-V1
_database_code_CSD DEWJUK23
_database_code_depnum_ccdc_archive 'CCDC 1903861'
_chemical_formula_sum 'C72 H60 Cu4 I4 P4'
_chemical_formula_moiety
;
C72 H60 Cu4 I4 P4
;
_journal_coden_Cambridge 222
_journal_volume 48
_journal_year 2019
_journal_page_first 7899
_journal_name_full 'Dalton Trans. '
loop_
_publ_author_name
"B.Huitorel"
"R.Utrera-Melero"
"F.Massuyeau"
"J.-Y.Mevelec"
"B.Baptiste"
"Alain Polian"
"T.Gacoin"
"C.Martineau-Corcos"
"S.Perruchas"
_chemical_name_systematic
;
tetrakis(\m-iodo)-tetrakis(triphenylphosphine)-tetra-copper(i)
;
_cell_volume  26082.073
_exptl_crystal_colour 'light colorless'
_exptl_crystal_density_diffrn 1.845
_exptl_crystal_description 'prism'
_diffrn_ambient_temperature 300
_diffrn_ambient_pressure 350000.0
#These two values have been output from a single CSD field.
_refine_ls_R_factor_gt 0.0483
_refine_ls_wR_factor_gt 0.0483
_symmetry_cell_setting cubic
_symmetry_space_group_name_H-M 'I -4 3 d'
_symmetry_Int_Tables_number 220
loop_
_symmetry_equiv_pos_site_id
_symmetry_equiv_pos_as_xyz
1 x,y,z
2 1/2-x,-y,1/2+z
3 -x,1/2+y,1/2-z
4 1/2+x,1/2-y,-z
5 z,x,y
6 1/2+z,1/2-x,-y
7 1/2-z,-x,1/2+y
8 -z,1/2+x,1/2-y
9 y,z,x
10 -y,1/2+z,1/2-x
11 1/2+y,1/2-z,-x
12 1/2-y,-z,1/2+x
13 1/4+y,1/4+x,1/4+z
14 1/4-y,3/4-x,3/4+z
15 3/4+y,1/4-x,3/4-z
16 3/4-y,3/4+x,1/4-z
17 1/4+x,1/4+z,1/4+y
18 3/4-x,3/4+z,1/4-y
19 1/4-x,3/4-z,3/4+y
20 3/4+x,1/4-z,3/4-y
21 1/4+z,1/4+y,1/4+x
22 3/4+z,1/4-y,3/4-x
23 3/4-z,3/4+y,1/4-x
24 1/4-z,3/4-y,3/4+x
25 1/2+x,1/2+y,1/2+z
26 -x,1/2-y,z
27 1/2-x,y,-z
28 x,-y,1/2-z
29 1/2+z,1/2+x,1/2+y
30 z,-x,1/2-y
31 -z,1/2-x,y
32 1/2-z,x,-y
33 1/2+y,1/2+z,1/2+x
34 1/2-y,z,-x
35 y,-z,1/2-x
36 -y,1/2-z,x
37 3/4+y,3/4+x,3/4+z
38 3/4-y,1/4-x,1/4+z
39 1/4+y,3/4-x,1/4-z
40 1/4-y,1/4+x,3/4-z
41 3/4+x,3/4+z,3/4+y
42 1/4-x,1/4+z,3/4-y
43 3/4-x,1/4-z,1/4+y
44 1/4+x,3/4-z,1/4-y
45 3/4+z,3/4+y,3/4+x
46 1/4+z,3/4-y,1/4-x
47 1/4-z,1/4+y,3/4-x
48 3/4-z,1/4-y,1/4+x
_cell_length_a 29.6561(15)
_cell_length_b 29.6561(15)
_cell_length_c 29.6561(15)
_cell_angle_alpha 90
_cell_angle_beta 90
_cell_angle_gamma 90
_cell_formula_units_Z 16
loop_
_atom_type_symbol
_atom_type_radius_bond
C 0.68
H 0.23
Cu 1.32
I 1.40
P 1.05
loop_
_atom_site_label
_atom_site_type_symbol
_atom_site_fract_x
_atom_site_fract_y
_atom_site_fract_z
I1 I 0.53894(4) 0.58012(4) 1.00859(4)
I2 I 0.55513(4) 0.44487(4) 0.94487(4)
Cu1 Cu 0.46334(7) 0.53666(7) 1.03666(7)
Cu2 Cu 0.51208(8) 0.52447(8) 0.94588(7)
P1 P 0.41914(14) 0.58086(14) 1.08086(14)
P2 P 0.50774(15) 0.54735(15) 0.87351(14)
C1 C 0.5048(7) 0.4673(6) 0.8251(6)
H1 H 0.53580 0.46660 0.83000
C2 C 0.5588(6) 0.5582(5) 0.8427(6)
C3 C 0.4629(6) 0.6254(7) 0.8950(7)
H2 H 0.46940 0.61680 0.92450
C4 C 0.4808(6) 0.5034(5) 0.8403(5)
C5 C 0.3443(6) 0.5260(6) 1.0623(6)
H3 H 0.36550 0.50350 1.05710
C6 C 0.5978(7) 0.5755(6) 0.8648(7)
H4 H 0.59800 0.57680 0.89620
C7 C 0.4121(7) 0.4683(7) 0.8104(8)
H5 H 0.38120 0.46850 0.80510
C8 C 0.3263(5) 0.6015(6) 1.0832(6)
H6 H 0.33460 0.63040 1.09220
C9 C 0.2991(7) 0.5168(7) 1.0565(7)
H7 H 0.29040 0.48790 1.04770
C10 C 0.4327(7) 0.6785(7) 0.8442(10)
H8 H 0.41950 0.70640 0.83840
C11 C 0.4846(8) 0.4311(7) 0.8023(6)
H9 H 0.50140 0.40660 0.79200
C12 C 0.2810(6) 0.5915(6) 1.0773(6)
H10 H 0.25930 0.61350 1.08260
C13 C 0.4432(10) 0.6519(9) 0.8095(9)
H11 H 0.43510 0.65960 0.78020
C14 C 0.4404(8) 0.6666(9) 0.8877(9)
H12 H 0.43130 0.68480 0.91150
C15 C 0.2677(7) 0.5483(7) 1.0632(6)
H13 H 0.23740 0.54180 1.05850
C16 C 0.6359(8) 0.5869(7) 0.7949(8)
H14 H 0.66100 0.59680 0.77890
C17 C 0.6357(7) 0.5905(7) 0.8413(9)
H15 H 0.66030 0.60260 0.85650
C18 C 0.3591(5) 0.5699(5) 1.0761(5)
C19 C 0.5998(7) 0.5690(8) 0.7719(7)
H16 H 0.60050 0.56640 0.74060
C20 C 0.4667(8) 0.6121(8) 0.8186(7)
H17 H 0.47680 0.59460 0.79460
C21 C 0.4339(6) 0.5033(6) 0.8336(7)
H18 H 0.41680 0.52710 0.84480
C22 C 0.4393(9) 0.4336(6) 0.7960(6)
H19 H 0.42550 0.40990 0.78070
C23 C 0.5619(6) 0.5548(7) 0.7961(7)
H20 H 0.53770 0.54250 0.78030
C24 C 0.4751(5) 0.5981(5) 0.8608(6)
C5F C 0.4377(6) 0.6557(6) 1.0260(6)
H3F H 0.44290 0.63450 1.00350
C8F C 0.4168(5) 0.6737(6) 1.1015(6)
H6F H 0.40780 0.66540 1.13040
C9F C 0.4435(7) 0.7009(7) 1.0168(7)
H7F H 0.45230 0.70960 0.98790
C12F C 0.4227(6) 0.7190(6) 1.0915(6)
H10F H 0.41740 0.74070 1.11350
C15F C 0.4368(7) 0.7323(7) 1.0483(6)
H13F H 0.44150 0.76260 1.04180
C18F C 0.4239(5) 0.6409(5) 1.0699(5)
C5I C 0.4740(6) 0.5623(6) 1.1557(6)
H3I H 0.49650 0.55710 1.13450
C8I C 0.3985(5) 0.5832(6) 1.1737(6)
H6I H 0.36960 0.59220 1.16540
C9I C 0.4832(7) 0.5565(7) 1.2009(7)
H7I H 0.51210 0.54770 1.20960
C12I C 0.4085(6) 0.5773(6) 1.2190(6)
H10I H 0.38650 0.58260 1.24070
C15I C 0.4517(7) 0.5632(7) 1.2323(6)
H13I H 0.45820 0.55850 1.26260
C18I C 0.4301(5) 0.5761(5) 1.1409(5)
I1F I 0.49141(4) 0.46106(4) 1.08012(4)
Cu2F Cu 0.55412(8) 0.48792(8) 1.02447(7)
P2F P 0.62649(15) 0.49226(15) 1.04735(14)
C1F C 0.6749(7) 0.4952(6) 0.9673(6)
H1F H 0.67000 0.46420 0.96660
C2F C 0.6573(6) 0.4412(5) 1.0582(6)
C3F C 0.6050(6) 0.5371(7) 1.1254(7)
H2F H 0.57550 0.53060 1.11680
C4F C 0.6597(6) 0.5192(5) 1.0034(5)
C6F C 0.6352(7) 0.4022(6) 1.0755(7)
H4F H 0.60380 0.40200 1.07680
C7F C 0.6896(7) 0.5879(7) 0.9683(8)
H5F H 0.69490 0.61880 0.96850
C10F C 0.6558(7) 0.5673(7) 1.1785(10)
H8F H 0.66160 0.58050 1.20640
C11F C 0.6977(8) 0.5154(7) 0.9311(6)
H9F H 0.70800 0.49860 0.90660
C13F C 0.6905(10) 0.5568(9) 1.1519(9)
H11F H 0.71980 0.56490 1.15960
C14F C 0.6123(8) 0.5596(9) 1.1666(9)
H12F H 0.58850 0.56870 1.18480
C16F C 0.7051(8) 0.3641(7) 1.0869(8)
H14F H 0.72110 0.33900 1.09680
C17F C 0.6587(7) 0.3643(7) 1.0905(9)
H15F H 0.64350 0.33970 1.10260
C19F C 0.7281(7) 0.4002(8) 1.0690(7)
H16F H 0.75940 0.39950 1.06640
C20F C 0.6814(8) 0.5333(8) 1.1121(7)
H17F H 0.70540 0.52320 1.09460
C21F C 0.6664(6) 0.5661(6) 1.0033(7)
H18F H 0.65520 0.58320 1.02710
C22F C 0.7040(9) 0.5607(6) 0.9336(6)
H19F H 0.71930 0.57450 0.90990
C23F C 0.7039(6) 0.4381(7) 1.0548(7)
H20F H 0.71970 0.46230 1.04250
C24F C 0.6392(5) 0.5249(5) 1.0981(6)
I1I I 0.41988(4) 0.50859(4) 0.96106(4)
Cu2I Cu 0.47553(8) 0.44588(8) 0.98792(7)
P2I P 0.45265(15) 0.37351(15) 0.99226(14)
C1I C 0.5327(7) 0.3251(6) 0.9952(6)
H1I H 0.53340 0.33000 0.96420
C2I C 0.4418(6) 0.3427(5) 0.9412(6)
C3I C 0.3746(6) 0.3950(7) 1.0371(7)
H2I H 0.38320 0.42450 1.03060
C4I C 0.4966(6) 0.3403(5) 1.0192(5)
C6I C 0.4245(7) 0.3648(6) 0.9022(7)
H4I H 0.42320 0.39620 0.90200
C7I C 0.5317(7) 0.3104(7) 1.0879(8)
H5I H 0.53150 0.30510 1.11880
C10I C 0.3215(7) 0.3442(7) 1.0673(10)
H8I H 0.29360 0.33840 1.08050
C11I C 0.5689(8) 0.3023(7) 1.0154(6)
H9I H 0.59340 0.29200 0.99860
C13I C 0.3481(10) 0.3095(9) 1.0568(9)
H11I H 0.34040 0.28020 1.06490
C14I C 0.3334(8) 0.3877(9) 1.0596(9)
H12I H 0.31520 0.41150 1.06870
C16I C 0.4131(8) 0.2949(7) 0.8641(8)
H14I H 0.40320 0.27890 0.83900
C17I C 0.4095(7) 0.3413(7) 0.8643(9)
H15I H 0.39740 0.35650 0.83970
C19I C 0.4310(7) 0.2719(8) 0.9002(7)
H16I H 0.43360 0.24060 0.89950
C20I C 0.3879(8) 0.3186(8) 1.0333(7)
H17I H 0.40540 0.29460 1.02320
C21I C 0.4967(6) 0.3336(6) 1.0661(7)
H18I H 0.47290 0.34480 1.08320
C22I C 0.5664(9) 0.2960(6) 1.0607(6)
H19I H 0.59010 0.28070 1.07450
C23I C 0.4452(6) 0.2961(7) 0.9381(7)
H20I H 0.45750 0.28030 0.96230
C24I C 0.4019(5) 0.3608(5) 1.0249(6)
#END

data_CSD_CIF_DEWJUK29
_audit_creation_date 2019-05-14
_audit_creation_method CSD-ConQuest-V1
_database_code_CSD DEWJUK29
_database_code_depnum_ccdc_archive 'CCDC 1903858'
_chemical_formula_sum 'C72 H60 Cu4 I4 P4'
_chemical_formula_moiety
;
C72 H60 Cu4 I4 P4
;
_journal_coden_Cambridge 222
_journal_volume 48
_journal_year 2019
_journal_page_first 7899
_journal_name_full 'Dalton Trans. '
loop_
_publ_author_name
"B.Huitorel"
"R.Utrera-Melero"
"F.Massuyeau"
"J.-Y.Mevelec"
"B.Baptiste"
"Alain Polian"
"T.Gacoin"
"C.Martineau-Corcos"
"S.Perruchas"
_chemical_name_systematic
;
tetrakis(\m-iodo)-tetrakis(triphenylphosphine)-tetra-copper
;
_cell_volume  27467.614
_exptl_crystal_colour 'colorless'
_exptl_crystal_density_diffrn 1.752
_exptl_special_details
;
cubic polymorph

;
_exptl_crystal_description 'prism'
_diffrn_ambient_temperature 300
#These two values have been output from a single CSD field.
_refine_ls_R_factor_gt 0.0293
_refine_ls_wR_factor_gt 0.0293
_symmetry_cell_setting cubic
_symmetry_space_group_name_H-M 'I -4 3 d'
_symmetry_Int_Tables_number 220
loop_
_symmetry_equiv_pos_site_id
_symmetry_equiv_pos_as_xyz
1 x,y,z
2 1/2-x,-y,1/2+z
3 -x,1/2+y,1/2-z
4 1/2+x,1/2-y,-z
5 z,x,y
6 1/2+z,1/2-x,-y
7 1/2-z,-x,1/2+y
8 -z,1/2+x,1/2-y
9 y,z,x
10 -y,1/2+z,1/2-x
11 1/2+y,1/2-z,-x
12 1/2-y,-z,1/2+x
13 1/4+y,1/4+x,1/4+z
14 1/4-y,3/4-x,3/4+z
15 3/4+y,1/4-x,3/4-z
16 3/4-y,3/4+x,1/4-z
17 1/4+x,1/4+z,1/4+y
18 3/4-x,3/4+z,1/4-y
19 1/4-x,3/4-z,3/4+y
20 3/4+x,1/4-z,3/4-y
21 1/4+z,1/4+y,1/4+x
22 3/4+z,1/4-y,3/4-x
23 3/4-z,3/4+y,1/4-x
24 1/4-z,3/4-y,3/4+x
25 1/2+x,1/2+y,1/2+z
26 -x,1/2-y,z
27 1/2-x,y,-z
28 x,-y,1/2-z
29 1/2+z,1/2+x,1/2+y
30 z,-x,1/2-y
31 -z,1/2-x,y
32 1/2-z,x,-y
33 1/2+y,1/2+z,1/2+x
34 1/2-y,z,-x
35 y,-z,1/2-x
36 -y,1/2-z,x
37 3/4+y,3/4+x,3/4+z
38 3/4-y,1/4-x,1/4+z
39 1/4+y,3/4-x,1/4-z
40 1/4-y,1/4+x,3/4-z
41 3/4+x,3/4+z,3/4+y
42 1/4-x,1/4+z,3/4-y
43 3/4-x,1/4-z,1/4+y
44 1/4+x,3/4-z,1/4-y
45 3/4+z,3/4+y,3/4+x
46 1/4+z,3/4-y,1/4-x
47 1/4-z,1/4+y,3/4-x
48 3/4-z,1/4-y,1/4+x
_cell_length_a 30.1722(3)
_cell_length_b 30.1722(3)
_cell_length_c 30.1722(3)
_cell_angle_alpha 90
_cell_angle_beta 90
_cell_angle_gamma 90
_cell_formula_units_Z 16
loop_
_atom_type_symbol
_atom_type_radius_bond
C 0.68
H 0.23
Cu 1.32
I 1.40
P 1.05
loop_
_atom_site_label
_atom_site_type_symbol
_atom_site_fract_x
_atom_site_fract_y
_atom_site_fract_z
I1 I 0.21238(2) 0.75786(2) 0.67209(2)
I2 I 0.19604(2) 0.69604(2) 0.80396(2)
Cu1 Cu 0.28714(3) 0.78714(3) 0.71286(3)
Cu2 Cu 0.23829(3) 0.69445(3) 0.72578(3)
P1 P 0.24187(6) 0.62342(5) 0.70309(6)
P2 P 0.33052(5) 0.83052(5) 0.66948(5)
C1 C 0.2447(3) 0.5754(2) 0.7819(2)
H1 H 0.21440 0.58080 0.78310
C2 C 0.1905(2) 0.5937(2) 0.6917(2)
C3 C 0.3256(2) 0.8197(2) 0.6102(2)
C4 C 0.2734(2) 0.6121(2) 0.6528(2)
C5 C 0.3327(2) 0.8513(2) 0.5777(2)
H2 H 0.34140 0.87970 0.58590
C6 C 0.2688(2) 0.5901(2) 0.7456(2)
C7 C 0.3167(3) 0.5961(4) 0.5733(3)
H3 H 0.33080 0.59100 0.54640
C8 C 0.2871(2) 0.6457(3) 0.6263(2)
H4 H 0.28180 0.67470 0.63510
C9 C 0.1542(3) 0.6165(3) 0.6767(3)
H5 H 0.15470 0.64730 0.67590
C10 C 0.3083(3) 0.7683(3) 0.5516(3)
H6 H 0.30010 0.73990 0.54280
C11 C 0.3138(3) 0.7776(3) 0.5971(2)
H7 H 0.30950 0.75550 0.61810
C12 C 0.3087(3) 0.6384(4) 0.5868(3)
H8 H 0.31770 0.66220 0.56950
C13 C 0.3099(4) 0.5452(3) 0.8144(3)
H9 H 0.32390 0.53000 0.83730
C14 C 0.2648(4) 0.5529(3) 0.8160(3)
H10 H 0.24820 0.54300 0.84000
C15 C 0.3335(3) 0.5602(3) 0.7792(3)
H11 H 0.36380 0.55480 0.77800
C16 C 0.3042(4) 0.5616(4) 0.5990(4)
H12 H 0.31030 0.53270 0.59020
C17 C 0.3272(3) 0.8415(3) 0.5335(2)
H13 H 0.33190 0.86340 0.51230
C18 C 0.1874(3) 0.5476(3) 0.6948(3)
H14 H 0.21090 0.53130 0.70610
C19 C 0.1165(3) 0.5939(4) 0.6626(3)
H15 H 0.09250 0.60950 0.65130
C20 C 0.1493(4) 0.5264(3) 0.6811(4)
H16 H 0.14760 0.49570 0.68290
C21 C 0.1148(3) 0.5493(4) 0.6654(3)
H17 H 0.08940 0.53440 0.65630
C22 C 0.3149(3) 0.8003(3) 0.5207(3)
H18 H 0.31090 0.79400 0.49080
C23 C 0.3135(3) 0.5831(3) 0.7454(3)
H19 H 0.33060 0.59390 0.72220
C24 C 0.2822(4) 0.5695(3) 0.6385(3)
H20 H 0.27320 0.54560 0.65570
C3G C 0.3898(2) 0.8256(2) 0.6803(2)
C5G C 0.4223(2) 0.8327(2) 0.6487(2)
H2G H 0.41410 0.84140 0.62030
C10G C 0.4484(3) 0.8083(3) 0.7317(3)
H6G H 0.45720 0.80010 0.76010
C11G C 0.4029(3) 0.8138(3) 0.7224(2)
H7G H 0.38190 0.80950 0.74450
C17G C 0.4665(3) 0.8272(3) 0.6585(2)
H13G H 0.48770 0.83190 0.63660
C22G C 0.4793(3) 0.8149(3) 0.6997(3)
H18G H 0.50920 0.81090 0.70600
C3J C 0.3197(2) 0.8898(2) 0.6744(2)
C5J C 0.3513(2) 0.9223(2) 0.6673(2)
H2J H 0.37970 0.91410 0.65860
C10J C 0.2683(3) 0.9484(3) 0.6917(3)
H6J H 0.23990 0.95720 0.69990
C11J C 0.2776(3) 0.9029(3) 0.6862(2)
H7J H 0.25550 0.88190 0.69050
C17J C 0.3415(3) 0.9665(3) 0.6728(2)
H13J H 0.36340 0.98770 0.66810
C22J C 0.3003(3) 0.9793(3) 0.6851(3)
H18J H 0.29400 1.00920 0.68910
I1G I 0.32791(2) 0.71238(2) 0.74214(2)
Cu2G Cu 0.27422(3) 0.73829(3) 0.80555(3)
P1G P 0.29691(6) 0.74187(5) 0.87658(6)
C1G C 0.2181(3) 0.7447(2) 0.9246(2)
H1G H 0.21690 0.71440 0.91920
C2G C 0.3083(2) 0.6905(2) 0.9063(2)
C4G C 0.3472(2) 0.7734(2) 0.8879(2)
C6G C 0.2544(2) 0.7688(2) 0.9099(2)
C7G C 0.4267(3) 0.8167(4) 0.9039(3)
H3G H 0.45360 0.83080 0.90900
C8G C 0.3737(2) 0.7871(3) 0.8543(2)
H4G H 0.36490 0.78180 0.82530
C9G C 0.3233(3) 0.6542(3) 0.8835(3)
H5G H 0.32410 0.65470 0.85270
C12G C 0.4132(3) 0.8087(4) 0.8616(3)
H8G H 0.43050 0.81770 0.83780
C13G C 0.1856(4) 0.8099(3) 0.9548(3)
H9G H 0.16270 0.82390 0.97000
C14G C 0.1840(4) 0.7648(3) 0.9471(3)
H10G H 0.16000 0.74820 0.95700
C15G C 0.2208(3) 0.8335(3) 0.9398(3)
H11G H 0.22200 0.86380 0.94520
C16G C 0.4010(4) 0.8042(4) 0.9384(4)
H12G H 0.40980 0.81030 0.96730
C18G C 0.3052(3) 0.6874(3) 0.9524(3)
H14G H 0.29390 0.71090 0.96870
C19G C 0.3374(3) 0.6165(4) 0.9061(3)
H15G H 0.34870 0.59250 0.89050
C20G C 0.3189(4) 0.6493(3) 0.9736(4)
H16G H 0.31710 0.64760 1.00430
C21G C 0.3346(3) 0.6148(4) 0.9507(3)
H17G H 0.34370 0.58940 0.96560
C23G C 0.2546(3) 0.8135(3) 0.9169(3)
H19G H 0.27780 0.83060 0.90610
C24G C 0.3615(4) 0.7822(3) 0.9305(3)
H20G H 0.34430 0.77320 0.95440
I1J I 0.25786(2) 0.82791(2) 0.78762(2)
Cu2J Cu 0.19445(3) 0.77422(3) 0.76171(3)
P1J P 0.12342(6) 0.79691(5) 0.75813(6)
C1J C 0.0754(3) 0.7181(2) 0.7553(2)
H1J H 0.08080 0.71690 0.78560
C2J C 0.0937(2) 0.8083(2) 0.8095(2)
C4J C 0.1121(2) 0.8472(2) 0.7266(2)
C6J C 0.0901(2) 0.7544(2) 0.7312(2)
C7J C 0.0961(3) 0.9267(4) 0.6833(3)
H3J H 0.09100 0.95360 0.66920
C8J C 0.1457(2) 0.8737(3) 0.7129(2)
H4J H 0.17470 0.86490 0.71820
C9J C 0.1165(3) 0.8233(3) 0.8458(3)
H5J H 0.14730 0.82410 0.84530
C12J C 0.1384(3) 0.9132(4) 0.6913(3)
H8J H 0.16220 0.93050 0.68230
C13J C 0.0452(4) 0.6856(3) 0.6901(3)
H9J H 0.03000 0.66270 0.67610
C14J C 0.0529(4) 0.6840(3) 0.7352(3)
H10J H 0.04300 0.66000 0.75180
C15J C 0.0602(3) 0.7208(3) 0.6665(3)
H11J H 0.05480 0.72200 0.63620
C16J C 0.0616(4) 0.9010(4) 0.6958(4)
H12J H 0.03270 0.90980 0.68970
C18J C 0.0476(3) 0.8052(3) 0.8126(3)
H14J H 0.03130 0.79390 0.78910
C19J C 0.0939(3) 0.8374(4) 0.8835(3)
H15J H 0.10950 0.84870 0.90750
C20J C 0.0264(4) 0.8189(3) 0.8507(4)
H16J H -0.00430 0.81710 0.85240
C21J C 0.0493(3) 0.8346(4) 0.8852(3)
H17J H 0.03440 0.84370 0.91060
C23J C 0.0831(3) 0.7546(3) 0.6865(3)
H19J H 0.09390 0.77780 0.66940
C24J C 0.0695(4) 0.8615(3) 0.7178(3)
H20J H 0.04560 0.84430 0.72680
#END

data_CSD_CIF_EMAHEF
_audit_creation_date 2004-02-24
_audit_creation_method CSD-ConQuest-V1
_database_code_CSD EMAHEF
_database_code_depnum_ccdc_archive 'CCDC 223121'
_chemical_formula_sum 'C40 H66.66 O19.33 Rh4 W4'
_chemical_formula_moiety
;
C40 H60 O16 Rh4 W4,3.33(H2 O1)
;
_journal_coden_Cambridge 1077
_journal_volume 17
_journal_year 2003
_journal_page_first 446
_journal_name_full 'Appl.Organomet.Chem. '
loop_
_publ_author_name
"K.Nishikawa"
"K.Kido"
"J.Yoshida"
"T.Nishioka"
"I.Kinoshita"
"B.K.Breedlove"
"Y.Hayashi"
"A.Uehara"
"K.Isobe"
_chemical_name_systematic
;
tetrakis(\m~4~-Oxo)-tetrakis(\m~3~-oxo)-tetrakis(\h^5^-pentamethyl-cyclopentad
ienyl)-octaoxo-tetra-rhodium-tetra-tungsten hydrate
;
_cell_volume  16108.210
_exptl_crystal_colour 'orange'
_exptl_crystal_density_diffrn 2.479
_exptl_special_details
;
isostructural with the Mo-analogue dihydrate

;
_exptl_crystal_description 'Prism'
_diffrn_ambient_temperature 193.2
#These two values have been output from a single CSD field.
_refine_ls_R_factor_gt 0.0339
_refine_ls_wR_factor_gt 0.0339
_symmetry_cell_setting cubic
_symmetry_space_group_name_H-M 'I -4 3 d'
_symmetry_Int_Tables_number 220
loop_
_symmetry_equiv_pos_site_id
_symmetry_equiv_pos_as_xyz
1 x,y,z
2 z,x,y
3 y,z,x
4 1/2+x,1/2-y,-z
5 1/2+z,1/2-x,-y
6 1/2+y,1/2-z,-x
7 -x,1/2+y,1/2-z
8 -z,1/2+x,1/2-y
9 -y,1/2+z,1/2-x
10 1/2-x,-y,1/2+z
11 1/2-z,-x,1/2+y
12 1/2-y,-z,1/2+x
13 1/4+x,1/4+z,1/4+y
14 1/4+y,1/4+x,1/4+z
15 1/4+z,1/4+y,1/4+x
16 -1/4+x,1/4-z,-1/4-y
17 -1/4+y,1/4-x,-1/4-z
18 -1/4+z,1/4-y,-1/4-x
19 -1/4-x,-1/4+z,1/4-y
20 -1/4-y,-1/4+x,1/4-z
21 -1/4-z,-1/4+y,1/4-x
22 1/4-x,-1/4-z,-1/4+y
23 1/4-y,-1/4-x,-1/4+z
24 1/4-z,-1/4-y,-1/4+x
25 1/2+x,1/2+y,1/2+z
26 1/2+z,1/2+x,1/2+y
27 1/2+y,1/2+z,1/2+x
28 x,-y,1/2-z
29 z,-x,1/2-y
30 y,-z,1/2-x
31 1/2-x,y,-z
32 1/2-z,x,-y
33 1/2-y,z,-x
34 -x,1/2-y,z
35 -z,1/2-x,y
36 -y,1/2-z,x
37 -1/4+x,-1/4+z,-1/4+y
38 -1/4+y,-1/4+x,-1/4+z
39 -1/4+z,-1/4+y,-1/4+x
40 1/4+x,-1/4-z,1/4-y
41 1/4+y,-1/4-x,1/4-z
42 1/4+z,-1/4-y,1/4-x
43 1/4-x,1/4+z,-1/4-y
44 1/4-y,1/4+x,-1/4-z
45 1/4-z,1/4+y,-1/4-x
46 -1/4-x,1/4-z,1/4+y
47 -1/4-y,1/4-x,1/4+z
48 -1/4-z,1/4-y,1/4+x
_cell_length_a 25.2551(5)
_cell_length_b 25.2551(5)
_cell_length_c 25.2551(5)
_cell_angle_alpha 90
_cell_angle_beta 90
_cell_angle_gamma 90
_cell_formula_units_Z 12
loop_
_atom_type_symbol
_atom_type_radius_bond
C 0.68
H 0.23
O 0.68
Rh 1.43
W 1.37
loop_
_atom_site_label
_atom_site_type_symbol
_atom_site_fract_x
_atom_site_fract_y
_atom_site_fract_z
W1 W 0.08567(1) -0.05068(1) 0.80608(1)
Rh1 Rh 0.00718(3) 0.04915(3) 0.79420(3)
O1 O 0.0901(3) 0.0388(2) 0.7849(2)
O2 O 0.0148(3) -0.0348(3) 0.7889(3)
O3 O 0.0845(3) -0.1186(3) 0.8012(3)
O4 O 0.0860(3) -0.0398(3) 0.8736(3)
O5 O -0.1375(4) -0.1375(4) 0.8625(4)
O6 O 0.1134(7) -0.2162(5) 0.7551(6)
C1 C -0.0125(7) 0.0720(8) 0.8733(6)
C2 C -0.0562(7) 0.0528(6) 0.8493(6)
C3 C -0.0693(4) 0.0803(5) 0.8054(6)
C4 C -0.0314(6) 0.1226(5) 0.7993(7)
C5 C 0.0043(5) 0.1159(7) 0.8452(7)
C6 C 0.018(2) 0.058(2) 0.9197(9)
C7 C -0.085(1) 0.0019(7) 0.8689(9)
C8 C -0.1152(7) 0.0719(9) 0.7711(9)
C9 C -0.0331(9) 0.1602(8) 0.752(1)
C10 C 0.0477(7) 0.154(1) 0.850(2)
H1 H -0.00240 0.02350 0.93640
H2 H 0.05080 0.04410 0.91340
H3 H 0.01590 0.08110 0.94780
H4 H -0.09430 0.00710 0.90540
H5 H -0.11250 -0.00680 0.84840
H6 H -0.05820 -0.02690 0.86900
H7 H -0.14850 0.07640 0.79120
H8 H -0.11700 0.09700 0.74260
H9 H -0.11650 0.03710 0.75640
H10 H -0.00320 0.18580 0.75740
H11 H -0.02940 0.14400 0.72080
H12 H -0.06440 0.18140 0.75460
H13 H 0.08120 0.13080 0.85630
H14 H 0.05170 0.17730 0.82890
H15 H 0.04430 0.16730 0.88910
W1PA W 0.16433(1) 0.05608(1) 0.80068(1)
O1PA O 0.1599(3) 0.0349(2) 0.7112(2)
W1AA W 0.08567(1) 0.05068(1) 0.69392(1)
O1AA O 0.0901(3) -0.0388(2) 0.7151(2)
W1U W 0.16433(1) -0.05608(1) 0.69932(1)
O1U O 0.1599(3) -0.0349(2) 0.7888(2)
Rh1AA Rh 0.00718(3) -0.04915(3) 0.70580(3)
O2AA O 0.0148(3) 0.0348(3) 0.7111(3)
C1AA C -0.0125(7) -0.0720(8) 0.6267(6)
C2AA C -0.0562(7) -0.0528(6) 0.6507(6)
C3AA C -0.0693(4) -0.0803(5) 0.6946(6)
C7AA C -0.085(1) -0.0019(7) 0.6311(9)
H4AA H -0.09430 -0.00710 0.59460
H5AA H -0.11250 0.00680 0.65160
H6AA H -0.05820 0.02690 0.63100
C4AA C -0.0314(6) -0.1226(5) 0.7007(7)
C5AA C 0.0043(5) -0.1159(7) 0.6548(7)
C6AA C 0.018(2) -0.058(2) 0.5803(9)
H1AA H -0.00240 -0.02350 0.56360
H2AA H 0.05080 -0.04410 0.58660
H3AA H 0.01590 -0.08110 0.55220
C9AA C -0.0331(9) -0.1602(8) 0.748(1)
H10AA H -0.00320 -0.18580 0.74260
H11AA H -0.02940 -0.14400 0.77920
H12AA H -0.06440 -0.18140 0.74540
C10AA C 0.0477(7) -0.154(1) 0.650(2)
H13AA H 0.08120 -0.13080 0.64370
H14AA H 0.05170 -0.17730 0.67110
H15AA H 0.04430 -0.16730 0.61090
C8AA C -0.1152(7) -0.0719(9) 0.7289(9)
H7AA H -0.14850 -0.07640 0.70880
H8AA H -0.11700 -0.09700 0.75740
H9AA H -0.11650 -0.03710 0.74360
O3AA O 0.0845(3) 0.1186(3) 0.6988(3)
O4AA O 0.0860(3) 0.0398(3) 0.6264(3)
O2PA O 0.2352(3) 0.0389(3) 0.7848(3)
Rh1PA Rh 0.24282(3) 0.04420(3) 0.70085(3)
O2U O 0.2352(3) -0.0389(3) 0.7152(3)
Rh1U Rh 0.24282(3) -0.04420(3) 0.79915(3)
C1U C 0.2625(7) -0.1233(8) 0.8220(6)
C2U C 0.3062(7) -0.0993(6) 0.8028(6)
C3U C 0.3193(4) -0.0554(5) 0.8303(6)
C7U C 0.335(1) -0.1189(7) 0.7519(9)
H4U H 0.34430 -0.15540 0.75710
H5U H 0.36250 -0.09840 0.74320
H6U H 0.30820 -0.11900 0.72310
C4U C 0.2814(6) -0.0493(5) 0.8726(7)
C5U C 0.2457(5) -0.0952(7) 0.8659(7)
C6U C 0.232(2) -0.1697(20) 0.8080(9)
H1U H 0.25240 -0.18640 0.77350
H2U H 0.19920 -0.16340 0.79410
H3U H 0.23410 -0.19780 0.83110
C9U C 0.2831(9) -0.0020(8) 0.9102(10)
H10U H 0.25320 -0.00740 0.93580
H11U H 0.27940 0.02920 0.89400
H12U H 0.31440 -0.00460 0.93140
C10U C 0.2023(7) -0.100(1) 0.904(2)
H13U H 0.16880 -0.10630 0.88080
H14U H 0.19830 -0.07890 0.92730
H15U H 0.20570 -0.13910 0.91730
C8U C 0.3652(7) -0.0211(9) 0.8219(9)
H7U H 0.39850 -0.04120 0.82640
H8U H 0.36700 0.00740 0.84700
H9U H 0.36650 -0.00640 0.78710
C1PA C 0.2625(7) 0.1233(8) 0.6780(6)
C2PA C 0.3062(7) 0.0993(6) 0.6972(6)
C3PA C 0.3193(4) 0.0554(5) 0.6697(6)
C7PA C 0.335(1) 0.1189(7) 0.7481(9)
H4PA H 0.34430 0.15540 0.74290
H5PA H 0.36250 0.09840 0.75680
H6PA H 0.30820 0.11900 0.77690
C4PA C 0.2814(6) 0.0493(5) 0.6274(7)
C5PA C 0.2457(5) 0.0952(7) 0.6341(7)
C6PA C 0.232(2) 0.1697(20) 0.6920(9)
H1PA H 0.25240 0.18640 0.72650
H2PA H 0.19920 0.16340 0.70590
H3PA H 0.23410 0.19780 0.66890
C9PA C 0.2831(9) 0.0020(8) 0.5898(10)
H10PA H 0.25320 0.00740 0.56420
H11PA H 0.27940 -0.02920 0.60600
H12PA H 0.31440 0.00460 0.56860
C10PA C 0.2023(7) 0.100(1) 0.596(2)
H13PA H 0.16880 0.10630 0.61920
H14PA H 0.19830 0.07890 0.57270
H15PA H 0.20570 0.13910 0.58270
C8PA C 0.3652(7) 0.0211(9) 0.6781(9)
H7PA H 0.39850 0.04120 0.67360
H8PA H 0.36700 -0.00740 0.65300
H9PA H 0.36650 0.00640 0.71290
O3U O 0.1655(3) -0.0512(3) 0.6314(3)
O4U O 0.1640(3) -0.1236(3) 0.7102(3)
O3PA O 0.1655(3) 0.0512(3) 0.8686(3)
O4PA O 0.1640(3) 0.1236(3) 0.7898(3)
#END

data_CSD_CIF_EPAMIS
_audit_creation_date 2011-05-17
_audit_creation_method CSD-ConQuest-V1
_database_code_CSD EPAMIS
_database_code_depnum_ccdc_archive 'CCDC 728999'
_chemical_formula_sum 'C6 H9 Ba0.25 O8 Rb0.5 U1'
_chemical_formula_moiety
;
0.5(Rb1 1+),0.25(Ba1 2+),C6 H9 O8 U1 1-
;
_journal_coden_Cambridge 41
_journal_volume 55
_journal_year 2010
_journal_page_first 251
_journal_name_full 'Kristallografiya(Russ.)(Crystallogr.Rep.) '
loop_
_publ_author_name
"L.B.Serezhkina"
"E.V.Peresypkina"
"A.V.Virovets"
"V.V.Klepov"
_chemical_name_systematic
;
Rubidium barium tris(acetato-O,O')-dioxo-uranium(vi)
;
_cell_volume   4944.888
_exptl_crystal_colour 'yellow'
_exptl_crystal_density_diffrn 2.817
_exptl_crystal_description 'plate'
_diffrn_ambient_temperature 100
#These two values have been output from a single CSD field.
_refine_ls_R_factor_gt 0.0182
_refine_ls_wR_factor_gt 0.0182
_symmetry_cell_setting cubic
_symmetry_space_group_name_H-M 'I -4 3 d'
_symmetry_Int_Tables_number 220
loop_
_symmetry_equiv_pos_site_id
_symmetry_equiv_pos_as_xyz
1 x,y,z
2 1/2-x,-y,1/2+z
3 -x,1/2+y,1/2-z
4 1/2+x,1/2-y,-z
5 z,x,y
6 1/2+z,1/2-x,-y
7 1/2-z,-x,1/2+y
8 -z,1/2+x,1/2-y
9 y,z,x
10 -y,1/2+z,1/2-x
11 1/2+y,1/2-z,-x
12 1/2-y,-z,1/2+x
13 1/4+y,1/4+x,1/4+z
14 1/4-y,3/4-x,3/4+z
15 3/4+y,1/4-x,3/4-z
16 3/4-y,3/4+x,1/4-z
17 1/4+x,1/4+z,1/4+y
18 3/4-x,3/4+z,1/4-y
19 1/4-x,3/4-z,3/4+y
20 3/4+x,1/4-z,3/4-y
21 1/4+z,1/4+y,1/4+x
22 3/4+z,1/4-y,3/4-x
23 3/4-z,3/4+y,1/4-x
24 1/4-z,3/4-y,3/4+x
25 1/2+x,1/2+y,1/2+z
26 -x,1/2-y,z
27 1/2-x,y,-z
28 x,-y,1/2-z
29 1/2+z,1/2+x,1/2+y
30 z,-x,1/2-y
31 -z,1/2-x,y
32 1/2-z,x,-y
33 1/2+y,1/2+z,1/2+x
34 1/2-y,z,-x
35 y,-z,1/2-x
36 -y,1/2-z,x
37 3/4+y,3/4+x,3/4+z
38 3/4-y,1/4-x,1/4+z
39 1/4+y,3/4-x,1/4-z
40 1/4-y,1/4+x,3/4-z
41 3/4+x,3/4+z,3/4+y
42 1/4-x,1/4+z,3/4-y
43 3/4-x,1/4-z,1/4+y
44 1/4+x,3/4-z,1/4-y
45 3/4+z,3/4+y,3/4+x
46 1/4+z,3/4-y,1/4-x
47 1/4-z,1/4+y,3/4-x
48 3/4-z,1/4-y,1/4+x
_cell_length_a 17.0367(1)
_cell_length_b 17.0367(1)
_cell_length_c 17.0367(1)
_cell_angle_alpha 90
_cell_angle_beta 90
_cell_angle_gamma 90
_cell_formula_units_Z 16
loop_
_atom_type_symbol
_atom_type_radius_bond
C 0.68
H 0.23
Ba 1.15
O 0.68
Rb 1.20
U 1.46
loop_
_atom_site_label
_atom_site_type_symbol
_atom_site_fract_x
_atom_site_fract_y
_atom_site_fract_z
Rb1 Rb 0.25000 0.37500 1.00000
Ba1 Ba 0.62500 0.50000 1.25000
U1 U 0.452447(8) 0.547553(8) 1.047553(8)
O1 O 0.51215(15) 0.48785(15) 0.98785(15)
O2 O 0.39275(16) 0.60725(16) 1.10725(16)
O3 O 0.38289(17) 0.42849(16) 1.09729(16)
O4 O 0.48903(16) 0.46604(16) 1.15980(15)
C1 C 0.4329(2) 0.4176(2) 1.1515(2)
C2 C 0.4266(3) 0.3492(2) 1.2049(3)
H1 H 0.47910 0.33350 1.22230
H2 H 0.40170 0.30540 1.17720
H3 H 0.39470 0.36340 1.25070
O3F O 0.40271(17) 0.61711(16) 0.92849(16)
O3I O 0.57151(17) 0.59729(16) 1.11711(16)
O4F O 0.34020(16) 0.51097(16) 0.96604(15)
O4I O 0.53396(16) 0.65980(16) 1.01097(15)
C1F C 0.3485(2) 0.5671(2) 0.9176(2)
C1I C 0.5824(2) 0.6515(2) 1.0671(2)
C2I C 0.6508(3) 0.7049(2) 1.0734(3)
C2F C 0.2951(3) 0.5734(2) 0.8492(3)
H1I H 0.66650 0.72230 1.02090
H1F H 0.27770 0.52090 0.83350
H2I H 0.69460 0.67720 1.09830
H2F H 0.32280 0.59830 0.80540
H3I H 0.63660 0.75070 1.10530
H3F H 0.24930 0.60530 0.86340
#END

data_CSD_CIF_FINBIP
_audit_creation_date 2013-08-13
_audit_creation_method CSD-ConQuest-V1
_database_code_CSD FINBIP
_database_code_depnum_ccdc_archive 'CCDC 900038'
_chemical_formula_sum 'C2 H3 N3 O6'
_chemical_formula_moiety
;
C2 H3 N3 O6
;
_journal_coden_Cambridge 644
_journal_volume 68
_journal_year 2013
_journal_page_first 719
_journal_name_full 'Z.Naturforsch.,B:Chem.Sci. '
loop_
_publ_author_name
"T.M.Klapotke"
"B.Krumm"
"R.Moll"
"A.Penger"
"S.M.Sproll"
"R.J.F.Berger"
"S.A.Hayes"
"N.W.Mitzel"
_chemical_name_systematic
;
1,1,1-Trinitroethane
;
_cell_volume   2524.456
_exptl_crystal_colour 'colorless'
_exptl_crystal_density_diffrn 1.737
_exptl_crystal_description 'block'
_diffrn_ambient_temperature 100
#These two values have been output from a single CSD field.
_refine_ls_R_factor_gt 0.0237
_refine_ls_wR_factor_gt 0.0237
_symmetry_cell_setting cubic
_symmetry_space_group_name_H-M 'I -4 3 d'
_symmetry_Int_Tables_number 220
loop_
_symmetry_equiv_pos_site_id
_symmetry_equiv_pos_as_xyz
1 x,y,z
2 -x,1/2-y,z
3 x,-y,1/2-z
4 1/2-x,y,-z
5 z,x,y
6 y,z,x
7 -z,1/2-x,y
8 1/2-y,z,-x
9 z,-x,1/2-y
10 -y,1/2-z,x
11 1/2-z,x,-y
12 y,-z,1/2-x
13 1/4+y,1/4+x,1/4+z
14 3/4-y,1/4-x,1/4+z
15 1/4-y,1/4+x,3/4-z
16 1/4+y,3/4-x,1/4-z
17 1/4+x,1/4+z,1/4+y
18 1/4+z,1/4+y,1/4+x
19 3/4-x,1/4-z,1/4+y
20 1/4+z,3/4-y,1/4-x
21 1/4-x,1/4+z,3/4-y
22 3/4-z,1/4-y,1/4+x
23 1/4+x,3/4-z,1/4-y
24 1/4-z,1/4+y,3/4-x
25 1/2+x,1/2+y,1/2+z
26 1/2-x,-y,1/2+z
27 1/2+x,1/2-y,-z
28 -x,1/2+y,1/2-z
29 1/2+z,1/2+x,1/2+y
30 1/2+y,1/2+z,1/2+x
31 1/2-z,-x,1/2+y
32 -y,1/2+z,1/2-x
33 1/2+z,1/2-x,-y
34 1/2-y,-z,1/2+x
35 -z,1/2+x,1/2-y
36 1/2+y,1/2-z,-x
37 3/4+y,3/4+x,3/4+z
38 1/4-y,3/4-x,3/4+z
39 3/4-y,3/4+x,1/4-z
40 3/4+y,1/4-x,3/4-z
41 3/4+x,3/4+z,3/4+y
42 3/4+z,3/4+y,3/4+x
43 1/4-x,3/4-z,3/4+y
44 3/4+z,1/4-y,3/4-x
45 3/4-x,3/4+z,1/4-y
46 1/4-z,3/4-y,3/4+x
47 3/4+x,1/4-z,3/4-y
48 3/4-z,3/4+y,1/4-x
_cell_length_a 13.6162(4)
_cell_length_b 13.6162(4)
_cell_length_c 13.6162(4)
_cell_angle_alpha 90
_cell_angle_beta 90
_cell_angle_gamma 90
_cell_formula_units_Z 16
loop_
_atom_type_symbol
_atom_type_radius_bond
C 0.68
H 0.23
N 0.68
O 0.68
loop_
_atom_site_label
_atom_site_type_symbol
_atom_site_fract_x
_atom_site_fract_y
_atom_site_fract_z
N1 N 0.0693(1) 0.06773(10) 0.54227(8)
O1 O 0.03162(8) 0.14876(9) 0.54932(8)
O2 O 0.14875(9) 0.04273(9) 0.57410(8)
C1 C 0.07489(12) -0.07489(12) 0.42511(12)
C2 C 0.01214(10) -0.01214(10) 0.48786(10)
H1 H 0.0336(8) -0.1175(12) 0.3888(10)
N1DA N -0.04227(10) -0.0693(1) 0.56773(8)
O1DA O -0.04932(8) -0.03162(9) 0.64876(8)
O2DA O -0.07410(9) -0.14875(9) 0.54273(8)
H1DA H 0.1112(8) -0.0336(12) 0.3825(10)
N1EA N -0.06773(10) 0.04227(10) 0.43070(8)
O1EA O -0.14876(8) 0.04932(9) 0.46838(8)
O2EA O -0.04273(9) 0.07410(9) 0.35125(8)
H1EA H 0.1175(8) -0.1112(12) 0.4664(10)
#END

data_CSD_CIF_FOZRER01
_audit_creation_date 2001-02-28
_audit_creation_method CSD-ConQuest-V1
_database_code_CSD FOZRER01
_database_code_depnum_ccdc_archive 'CCDC 156195'
_chemical_formula_sum 'C30 H39 Cl1 Sn1'
_chemical_formula_moiety
;
C30 H39 Cl1 Sn1
;
_journal_coeditor_code "IUCr QA0440"
_journal_data_validation_number IUC0000307
_journal_coden_Cambridge 591
_journal_volume 56
_journal_year 2000
_journal_page_first e554
_journal_name_full 'Acta Crystallogr.,Sect.C:Cryst.Struct.Commun. '
loop_
_publ_author_name
"J.N.Low"
"J.Wardell"
"J.A.S.Bomfim"
"S.M.S.V.Wardell"
_chemical_name_systematic
;
Chloro-tris(2-methyl-2-phenylpropyl)-tin(iv)
;
_cell_volume  11218.063
_exptl_crystal_colour 'colorless'
_exptl_crystal_density_diffrn 1.311
_exptl_crystal_description 'block'
_diffrn_ambient_temperature 150.0
#These two values have been output from a single CSD field.
_refine_ls_R_factor_gt 0.042
_refine_ls_wR_factor_gt 0.042
_symmetry_cell_setting cubic
_symmetry_space_group_name_H-M 'I -4 3 d'
_symmetry_Int_Tables_number 220
loop_
_symmetry_equiv_pos_site_id
_symmetry_equiv_pos_as_xyz
1 x,y,z
2 y,z,x
3 z,x,y
4 3/4+y,1/4-x,3/4-z
5 3/4+z,1/4-y,3/4-x
6 3/4+x,1/4-z,3/4-y
7 -x,1/2-y,z
8 1/2-z,x,-y
9 1/2-x,y,-z
10 -y,1/2-z,x
11 -z,1/2-x,y
12 1/4-y,1/4+x,3/4-z
13 1/4-z,1/4+y,3/4-x
14 1/4-x,1/4+z,3/4-y
15 1/2-y,z,-x
16 3/4+z,3/4+y,3/4+x
17 3/4+x,3/4+z,3/4+y
18 3/4+y,3/4+x,3/4+z
19 1/2+y,1/2-z,-x
20 3/4-y,1/4-x,1/4+z
21 3/4-z,1/4-y,1/4+x
22 3/4-x,1/4-z,1/4+y
23 1/2+x,1/2-y,-z
24 1/2+z,1/2-x,-y
25 1/2+x,1/2+y,1/2+z
26 1/2+y,1/2+z,1/2+x
27 1/2+z,1/2+x,1/2+y
28 1/4+y,3/4-x,1/4-z
29 1/4+z,3/4-y,1/4-x
30 1/4+x,3/4-z,1/4-y
31 1/2-x,-y,1/2+z
32 -z,1/2+x,1/2-y
33 -x,1/2+y,1/2-z
34 1/2-y,-z,1/2+x
35 1/2-z,-x,1/2+y
36 3/4-y,3/4+x,1/4-z
37 3/4-z,3/4+y,1/4-x
38 3/4-x,3/4+z,1/4-y
39 -y,1/2+z,1/2-x
40 1/4+z,1/4+y,1/4+x
41 1/4+x,1/4+z,1/4+y
42 1/4+y,1/4+x,1/4+z
43 y,-z,1/2-x
44 1/4-y,3/4-x,3/4+z
45 1/4-z,3/4-y,3/4+x
46 1/4-x,3/4-z,3/4+y
47 x,-y,1/2-z
48 z,-x,1/2-y
_cell_length_a 22.3858(4)
_cell_length_b 22.3858(4)
_cell_length_c 22.3858(4)
_cell_angle_alpha 90
_cell_angle_beta 90
_cell_angle_gamma 90
_cell_formula_units_Z 16
loop_
_atom_type_symbol
_atom_type_radius_bond
C 0.68
H 0.23
Cl 0.99
Sn 1.46
loop_
_atom_site_label
_atom_site_type_symbol
_atom_site_fract_x
_atom_site_fract_y
_atom_site_fract_z
Sn1 Sn 0.402092(13) 0.597908(13) 0.097908(13)
Cl1 Cl 0.34066(7) 0.65934(7) 0.15934(7)
C1 C 0.3382(2) 0.5305(2) 0.0735(3)
C2 C 0.3405(3) 0.4703(3) 0.1068(2)
C3 C 0.3289(5) 0.4824(5) 0.1742(3)
C4 C 0.2920(3) 0.4299(4) 0.0823(3)
C5 C 0.4002(3) 0.4399(2) 0.0977(2)
C6 C 0.4251(3) 0.4369(3) 0.0412(3)
C7 C 0.4779(3) 0.4084(3) 0.0254(4)
C8 C 0.5078(5) 0.3803(4) 0.0657(4)
C9 C 0.4916(5) 0.3788(3) 0.1219(5)
C10 C 0.4365(6) 0.4099(3) 0.1415(4)
H1 H 0.29780 0.54760 0.07910
H2 H 0.34310 0.52230 0.03030
H3 H 0.32180 0.44440 0.19480
H4 H 0.29370 0.50810 0.17860
H5 H 0.36370 0.50220 0.19170
H6 H 0.29830 0.42390 0.03940
H7 H 0.25290 0.44840 0.08880
H8 H 0.29350 0.39120 0.10280
H9 H 0.40390 0.45640 0.01000
H10 H 0.49170 0.40950 -0.01470
H11 H 0.54320 0.36000 0.05420
H12 H 0.51510 0.35760 0.15010
H13 H 0.42530 0.41000 0.18240
C1HA C 0.4265(2) 0.6618(2) 0.0305(3)
C2HA C 0.3932(3) 0.6595(3) -0.0297(2)
C3HA C 0.3258(5) 0.6711(5) -0.0176(3)
H3HA H 0.30520 0.67820 -0.05560
H4HA H 0.32140 0.70630 0.00810
H5HA H 0.30830 0.63630 0.00220
C4HA C 0.4177(3) 0.7080(4) -0.0701(3)
H6HA H 0.46060 0.70170 -0.07610
H7HA H 0.41120 0.74710 -0.05160
H8HA H 0.39720 0.70650 -0.10880
C5HA C 0.4023(3) 0.5998(2) -0.0601(2)
C6HA C 0.4588(3) 0.5749(3) -0.0631(3)
C7HA C 0.4746(3) 0.5221(3) -0.0916(4)
C8HA C 0.4343(5) 0.4922(4) -0.1197(4)
C9HA C 0.3781(5) 0.5084(3) -0.1212(5)
C10HA C 0.3585(6) 0.5635(3) -0.0901(4)
H13HA H 0.31760 0.57470 -0.09000
H12HA H 0.34990 0.48490 -0.14240
H11HA H 0.44580 0.45680 -0.14000
H10HA H 0.51470 0.50830 -0.09050
H9HA H 0.49000 0.59610 -0.04360
H1HA H 0.42090 0.70220 0.04760
H2HA H 0.46970 0.65690 0.02230
C1LA C 0.4695(2) 0.5735(2) 0.1618(3)
C2LA C 0.5297(3) 0.6068(3) 0.1595(2)
C3LA C 0.5176(5) 0.6742(5) 0.1711(3)
H3LA H 0.55560 0.69480 0.17820
H4LA H 0.49190 0.67860 0.20630
H5LA H 0.49780 0.69170 0.13630
C4LA C 0.5701(3) 0.5823(4) 0.2080(3)
H6LA H 0.57610 0.53940 0.20170
H7LA H 0.55160 0.58880 0.24710
H8LA H 0.60880 0.60280 0.20650
C5LA C 0.5601(3) 0.5977(2) 0.0998(2)
C6LA C 0.5631(3) 0.5412(3) 0.0749(3)
C7LA C 0.5916(3) 0.5254(3) 0.0221(4)
C8LA C 0.6197(5) 0.5657(4) -0.0078(4)
C9LA C 0.6212(5) 0.6219(3) 0.0084(5)
C10LA C 0.5901(6) 0.6415(3) 0.0635(4)
H13LA H 0.59000 0.68240 0.07470
H12LA H 0.64240 0.65010 -0.01510
H11LA H 0.64000 0.55420 -0.04320
H10LA H 0.59050 0.48530 0.00830
H9LA H 0.54360 0.51000 0.09610
H1LA H 0.45240 0.57910 0.20220
H2LA H 0.47770 0.53030 0.15690
#END

data_CSD_CIF_GAKKEM
_audit_creation_date 2020-11-11
_audit_creation_method CSD-ConQuest-V1
_database_code_CSD GAKKEM
_database_code_depnum_ccdc_archive 'CCDC 1974619'
_chemical_formula_sum 'C24 B1 Cs1 F20'
_chemical_formula_moiety
;
C24 B1 F20 1-,Cs1 1+
;
_journal_coden_Cambridge 1115
_journal_volume 43
_journal_year 2020
_journal_page_first 99
_journal_name_full 'Main Group Met.Chem. '
loop_
_publ_author_name
"D.Duvinage"
"A.Schroder"
"Enno Lork"
"J.Beckmann"
_chemical_name_systematic
;
cesium tetrakis(pentafluorophenyl)borate
;
_cell_volume   7092.275
_exptl_crystal_colour 'red'
_exptl_crystal_density_diffrn 2.281
_exptl_crystal_description 'block'
_diffrn_ambient_temperature 100
#These two values have been output from a single CSD field.
_refine_ls_R_factor_gt 0.0277
_refine_ls_wR_factor_gt 0.0277
_symmetry_cell_setting cubic
_symmetry_space_group_name_H-M 'I -4 3 d'
_symmetry_Int_Tables_number 220
loop_
_symmetry_equiv_pos_site_id
_symmetry_equiv_pos_as_xyz
1 x,y,z
2 1/2-x,-y,1/2+z
3 -x,1/2+y,1/2-z
4 1/2+x,1/2-y,-z
5 z,x,y
6 1/2+z,1/2-x,-y
7 1/2-z,-x,1/2+y
8 -z,1/2+x,1/2-y
9 y,z,x
10 -y,1/2+z,1/2-x
11 1/2+y,1/2-z,-x
12 1/2-y,-z,1/2+x
13 1/4+y,1/4+x,1/4+z
14 1/4-y,3/4-x,3/4+z
15 3/4+y,1/4-x,3/4-z
16 3/4-y,3/4+x,1/4-z
17 1/4+x,1/4+z,1/4+y
18 3/4-x,3/4+z,1/4-y
19 1/4-x,3/4-z,3/4+y
20 3/4+x,1/4-z,3/4-y
21 1/4+z,1/4+y,1/4+x
22 3/4+z,1/4-y,3/4-x
23 3/4-z,3/4+y,1/4-x
24 1/4-z,3/4-y,3/4+x
25 1/2+x,1/2+y,1/2+z
26 -x,1/2-y,z
27 1/2-x,y,-z
28 x,-y,1/2-z
29 1/2+z,1/2+x,1/2+y
30 z,-x,1/2-y
31 -z,1/2-x,y
32 1/2-z,x,-y
33 1/2+y,1/2+z,1/2+x
34 1/2-y,z,-x
35 y,-z,1/2-x
36 -y,1/2-z,x
37 3/4+y,3/4+x,3/4+z
38 3/4-y,1/4-x,1/4+z
39 1/4+y,3/4-x,1/4-z
40 1/4-y,1/4+x,3/4-z
41 3/4+x,3/4+z,3/4+y
42 1/4-x,1/4+z,3/4-y
43 3/4-x,1/4-z,1/4+y
44 1/4+x,3/4-z,1/4-y
45 3/4+z,3/4+y,3/4+x
46 1/4+z,3/4-y,1/4-x
47 1/4-z,1/4+y,3/4-x
48 3/4-z,1/4-y,1/4+x
_cell_length_a 19.213(1)
_cell_length_b 19.213(1)
_cell_length_c 19.213(1)
_cell_angle_alpha 90
_cell_angle_beta 90
_cell_angle_gamma 90
_cell_formula_units_Z 12
loop_
_atom_type_symbol
_atom_type_radius_bond
C 0.68
B 0.83
Cs 2.44
F 0.64
loop_
_atom_site_label
_atom_site_type_symbol
_atom_site_fract_x
_atom_site_fract_y
_atom_site_fract_z
Cs1 Cs 0.75902(2) 0.75902(2) 0.75902(2)
F1 F 0.78974(10) 0.39952(11) 0.67818(11)
F2 F 0.83601(11) 0.64166(10) 0.68698(11)
F3 F 0.74090(12) 0.66276(11) 0.59082(13)
F4 F 0.69277(13) 0.42358(13) 0.58020(12)
F5 F 0.66625(12) 0.55560(14) 0.53640(13)
C1 C 0.78012(16) 0.46566(17) 0.65670(18)
C2 C 0.82060(15) 0.51828(17) 0.68606(16)
C3 C 0.72945(18) 0.47659(18) 0.60670(16)
C4 C 0.75413(18) 0.59747(16) 0.61083(17)
C5 C 0.80461(16) 0.58446(17) 0.66108(17)
C6 C 0.71634(17) 0.5433(2) 0.58380(19)
B1 B 0.87500 0.50000 0.75000
F1Q F 0.96026(10) 0.42818(11) 0.85048(11)
F2Q F 0.91399(11) 0.43698(10) 0.60834(11)
F3Q F 1.00910(12) 0.34082(11) 0.58724(13)
F4Q F 1.05723(13) 0.33020(13) 0.82642(12)
F5Q F 1.08375(12) 0.28640(14) 0.69440(13)
C1Q C 0.96988(16) 0.40670(17) 0.78434(18)
C2Q C 0.92940(15) 0.43606(17) 0.73172(16)
C3Q C 1.02055(18) 0.35670(18) 0.77341(16)
C4Q C 0.99587(18) 0.36083(16) 0.65253(17)
C5Q C 0.94539(16) 0.41108(17) 0.66554(17)
C6Q C 1.03366(17) 0.3338(2) 0.70670(19)
F1AA F 0.78974(10) 0.60048(11) 0.82182(11)
F2AA F 0.83601(11) 0.35834(10) 0.81302(11)
F3AA F 0.74090(12) 0.33724(11) 0.90918(13)
F4AA F 0.69277(13) 0.57642(13) 0.91980(12)
F5AA F 0.66625(12) 0.44440(14) 0.96360(13)
C1AA C 0.78012(16) 0.53434(17) 0.84330(18)
C2AA C 0.82060(15) 0.48172(17) 0.81394(16)
C3AA C 0.72945(18) 0.52341(18) 0.89330(16)
C4AA C 0.75413(18) 0.40253(16) 0.88917(17)
C5AA C 0.80461(16) 0.41554(17) 0.83892(17)
C6AA C 0.71634(17) 0.4567(2) 0.91620(19)
F1PA F 0.96026(10) 0.57182(11) 0.64952(11)
F2PA F 0.91399(11) 0.56302(10) 0.89166(11)
F3PA F 1.00910(12) 0.65918(11) 0.91276(13)
F4PA F 1.05723(13) 0.66980(13) 0.67358(12)
F5PA F 1.08375(12) 0.71360(14) 0.80560(13)
C1PA C 0.96988(16) 0.59330(17) 0.71566(18)
C2PA C 0.92940(15) 0.56394(17) 0.76828(16)
C3PA C 1.02055(18) 0.64330(18) 0.72659(16)
C4PA C 0.99587(18) 0.63917(16) 0.84747(17)
C5PA C 0.94539(16) 0.58892(17) 0.83446(17)
C6PA C 1.03366(17) 0.6662(2) 0.79330(19)
#END

data_CSD_CIF_GECNUX
_audit_creation_date 1989-04-05
_audit_creation_method CSD-ConQuest-V1
_database_code_CSD GECNUX
_chemical_formula_sum 'C40 H64 Mo4 O18 Rh4'
_chemical_formula_moiety
;
C40 H60 Mo4 O16 Rh4,2(H2 O1)
;
_journal_coden_Cambridge 4
_journal_volume 110
_journal_year 1988
_journal_page_first 3666
_journal_name_full 'J.Am.Chem.Soc. '
loop_
_publ_author_name
"Y.Hayashi"
"K.Toriumi"
"K.Isobe"
_chemical_name_systematic
;
tetrakis((\m~4~-Oxo)-(\m~3~-oxo)-(\h^5^-pentamethyl-cyclopentadienyl)-rhodium-
dioxo-molybdenum) dihydrate
;
_cell_volume  16165.490
_exptl_crystal_colour 'red'
_exptl_crystal_density_diffrn 2.01
_exptl_special_details
;
Isomorphous with the iridium analogue

;
_diffrn_ambient_temperature ?
_diffrn_special_details
;
The study was carried out at room temperature,in the range 283-303K

;
#These two values have been output from a single CSD field.
_refine_ls_R_factor_gt 0.037
_refine_ls_wR_factor_gt 0.037
_symmetry_cell_setting cubic
_symmetry_space_group_name_H-M 'I -4 3 d'
_symmetry_Int_Tables_number 220
loop_
_symmetry_equiv_pos_site_id
_symmetry_equiv_pos_as_xyz
1 x,y,z
2 1/2+x,1/2+y,1/2+z
3 z,x,y
4 y,z,x
5 1/2+z,1/2+x,1/2+y
6 1/2+y,1/2+z,1/2+x
7 1/2+x,1/2-y,-z
8 x,-y,1/2-z
9 1/2+z,1/2-x,-y
10 1/2+y,1/2-z,-x
11 z,-x,1/2-y
12 y,-z,1/2-x
13 -x,1/2+y,1/2-z
14 1/2-x,y,-z
15 -z,1/2+x,1/2-y
16 -y,1/2+z,1/2-x
17 1/2-z,x,-y
18 1/2-y,z,-x
19 1/2-x,-y,1/2+z
20 -x,1/2-y,z
21 1/2-z,-x,1/2+y
22 1/2-y,-z,1/2+x
23 -z,1/2-x,y
24 -y,1/2-z,x
25 1/4+y,1/4+x,1/4+z
26 3/4+y,3/4+x,3/4+z
27 1/4+x,1/4+z,1/4+y
28 1/4+z,1/4+y,1/4+x
29 3/4+x,3/4+z,3/4+y
30 3/4+z,3/4+y,3/4+x
31 3/4-y,3/4+x,1/4-z
32 1/4-y,1/4+x,3/4-z
33 3/4-x,3/4+z,1/4-y
34 3/4-z,3/4+y,1/4-x
35 1/4-x,1/4+z,3/4-y
36 1/4-z,1/4+y,3/4-x
37 3/4+y,1/4-x,3/4-z
38 1/4+y,3/4-x,1/4-z
39 3/4+x,1/4-z,3/4-y
40 3/4+z,1/4-y,3/4-x
41 1/4+x,3/4-z,1/4-y
42 1/4+z,3/4-y,1/4-x
43 1/4-y,3/4-x,3/4+z
44 3/4-y,1/4-x,1/4+z
45 1/4-x,3/4-z,3/4+y
46 1/4-z,3/4-y,3/4+x
47 3/4-x,1/4-z,1/4+y
48 3/4-z,1/4-y,1/4+x
_cell_length_a 25.285(2)
_cell_length_b 25.285(2)
_cell_length_c 25.285(2)
_cell_angle_alpha 90
_cell_angle_beta 90
_cell_angle_gamma 90
_cell_formula_units_Z 12
loop_
_atom_type_symbol
_atom_type_radius_bond
C 0.68
Mo 1.41
O 0.68
Rh 1.40
loop_
_atom_site_label
_atom_site_type_symbol
_atom_site_fract_x
_atom_site_fract_y
_atom_site_fract_z
Rh1 Rh 0.29333(4) 0.00795(4) 0.45036(4)
Mo1 Mo 0.19282(4) 0.08617(4) 0.44960(4)
O1 O 0.2847(3) 0.0898(3) 0.4608(3)
O2 O 0.1974(4) 0.0853(4) 0.3826(3)
O3 O 0.2107(3) 0.0149(3) 0.4657(3)
O4 O 0.1263(3) 0.0852(4) 0.4623(3)
C1 C 0.3501(7) -0.0542(8) 0.4467(7)
C2 C 0.3047(8) -0.0689(6) 0.4200(6)
C3 C 0.2940(7) -0.0302(7) 0.3773(6)
C4 C 0.3423(10) 0.0066(7) 0.3816(8)
C5 C 0.3729(10) -0.0090(12) 0.4229(12)
C6 C 0.3693(9) -0.0853(10) 0.4988(9)
C7 C 0.2724(9) -0.1173(8) 0.4262(12)
C8 C 0.2478(12) -0.0305(11) 0.3373(8)
C9 C 0.3553(19) 0.0514(9) 0.3503(15)
C10 C 0.4234(7) 0.018(1) 0.4391(12)
O5 O 0.241(1) -0.112(1) 0.2172(8)
O3M O 0.2893(3) 0.0149(3) 0.5343(3)
Mo1M Mo 0.30718(4) 0.08617(4) 0.55040(4)
Mo1UA Mo 0.30040(4) 0.16383(4) 0.44282(4)
O1M O 0.2153(3) 0.0898(3) 0.5392(3)
O1MA O 0.2108(3) 0.1602(3) 0.4653(3)
Rh1M Rh 0.20667(4) 0.00795(4) 0.54964(4)
O1UA O 0.2892(3) 0.1602(3) 0.5347(3)
O2M O 0.3026(4) 0.0853(4) 0.6174(3)
O4M O 0.3737(3) 0.0852(4) 0.5377(3)
O2UA O 0.3674(4) 0.1647(4) 0.4474(3)
O3UA O 0.2843(3) 0.2351(3) 0.4607(3)
O4UA O 0.2877(3) 0.1648(4) 0.3763(3)
Mo1MA Mo 0.19960(4) 0.16383(4) 0.55718(4)
Rh1MA Rh 0.20036(4) 0.24205(4) 0.45667(4)
C1M C 0.1499(7) -0.0542(8) 0.5533(7)
C2M C 0.1953(8) -0.0689(6) 0.5800(6)
C3M C 0.2060(7) -0.0302(7) 0.6227(6)
C4M C 0.1577(10) 0.0066(7) 0.6184(8)
C5M C 0.1271(10) -0.0090(12) 0.5771(12)
Rh1UA Rh 0.29964(4) 0.24205(4) 0.54333(4)
O2MA O 0.1326(4) 0.1647(4) 0.5526(3)
O3MA O 0.2157(3) 0.2351(3) 0.5393(3)
O4MA O 0.2123(3) 0.1648(4) 0.6237(3)
C1MA C 0.1967(7) 0.3042(8) 0.3999(7)
C2MA C 0.1700(8) 0.3189(6) 0.4453(6)
C3MA C 0.1273(7) 0.2802(7) 0.4560(6)
C4MA C 0.1316(10) 0.2434(7) 0.4077(8)
C5MA C 0.1729(10) 0.2590(12) 0.3771(12)
C6M C 0.1307(9) -0.0853(10) 0.5012(9)
C7M C 0.2276(9) -0.1173(8) 0.5738(12)
C8M C 0.2522(12) -0.0305(11) 0.6627(8)
C9M C 0.1447(19) 0.0514(9) 0.6497(15)
C10M C 0.0766(7) 0.018(1) 0.5609(12)
C1UA C 0.3033(7) 0.3042(8) 0.6001(7)
C2UA C 0.3300(8) 0.3189(6) 0.5547(6)
C3UA C 0.3727(7) 0.2802(7) 0.5440(6)
C4UA C 0.3684(10) 0.2434(7) 0.5923(8)
C5UA C 0.3271(10) 0.2590(12) 0.6229(12)
C6MA C 0.2488(9) 0.3353(10) 0.3807(9)
C7MA C 0.1762(9) 0.3673(8) 0.4776(12)
C8MA C 0.0873(12) 0.2805(11) 0.5022(8)
C9MA C 0.1003(19) 0.1986(9) 0.3947(15)
C10MA C 0.1891(7) 0.232(1) 0.3266(12)
C6UA C 0.2512(9) 0.3353(10) 0.6193(9)
C7UA C 0.3238(9) 0.3673(8) 0.5224(12)
C8UA C 0.4127(12) 0.2805(11) 0.4978(8)
C9UA C 0.3997(19) 0.1986(9) 0.6053(15)
C10UA C 0.3109(7) 0.232(1) 0.6734(12)
#END

data_CSD_CIF_GIQHOF
_audit_creation_date 2013-09-16
_audit_creation_method CSD-ConQuest-V1
_database_code_CSD GIQHOF
_database_code_depnum_ccdc_archive 'CCDC 949734'
_chemical_formula_sum 'C36 H90 O9 Si6 W3'
_chemical_formula_moiety
;
C36 H90 O9 Si6 W3
;
_journal_coden_Cambridge 182
_journal_volume 49
_journal_year 2013
_journal_page_first 9555
_journal_name_full 'Chem.Commun. '
loop_
_publ_author_name
"L.A.Morton"
"Maozhong Miao"
"T.M.Callaway"
"Tianniu Chen"
"Shu-Jian Chen"
"A.A.Tuinman"
"Xianghua Yu"
"Zheng Lu"
"Zi-Ling Xue"
_chemical_name_systematic
;
tris(\m~2~-Oxo)-trioxo-tris(tetrahydrofuran)-hexakis(trimethylsilylmethyl)-tri
-tungsten
;
_cell_volume  22105.235
_exptl_crystal_colour 'colorless'
_exptl_crystal_density_diffrn 1.667
_exptl_special_details
;
air- and moisture-sensitive

;
_exptl_crystal_description 'block'
_diffrn_ambient_temperature 173
#These two values have been output from a single CSD field.
_refine_ls_R_factor_gt 0.0218
_refine_ls_wR_factor_gt 0.0218
_symmetry_cell_setting cubic
_symmetry_space_group_name_H-M 'I -4 3 d'
_symmetry_Int_Tables_number 220
loop_
_symmetry_equiv_pos_site_id
_symmetry_equiv_pos_as_xyz
1 x,y,z
2 1/2-x,-y,1/2+z
3 -x,1/2+y,1/2-z
4 1/2+x,1/2-y,-z
5 z,x,y
6 1/2+z,1/2-x,-y
7 1/2-z,-x,1/2+y
8 -z,1/2+x,1/2-y
9 y,z,x
10 -y,1/2+z,1/2-x
11 1/2+y,1/2-z,-x
12 1/2-y,-z,1/2+x
13 1/4+y,1/4+x,1/4+z
14 1/4-y,3/4-x,3/4+z
15 3/4+y,1/4-x,3/4-z
16 3/4-y,3/4+x,1/4-z
17 1/4+x,1/4+z,1/4+y
18 3/4-x,3/4+z,1/4-y
19 1/4-x,3/4-z,3/4+y
20 3/4+x,1/4-z,3/4-y
21 1/4+z,1/4+y,1/4+x
22 3/4+z,1/4-y,3/4-x
23 3/4-z,3/4+y,1/4-x
24 1/4-z,3/4-y,3/4+x
25 1/2+x,1/2+y,1/2+z
26 -x,1/2-y,z
27 1/2-x,y,-z
28 x,-y,1/2-z
29 1/2+z,1/2+x,1/2+y
30 z,-x,1/2-y
31 -z,1/2-x,y
32 1/2-z,x,-y
33 1/2+y,1/2+z,1/2+x
34 1/2-y,z,-x
35 y,-z,1/2-x
36 -y,1/2-z,x
37 3/4+y,3/4+x,3/4+z
38 3/4-y,1/4-x,1/4+z
39 1/4+y,3/4-x,1/4-z
40 1/4-y,1/4+x,3/4-z
41 3/4+x,3/4+z,3/4+y
42 1/4-x,1/4+z,3/4-y
43 3/4-x,1/4-z,1/4+y
44 1/4+x,3/4-z,1/4-y
45 3/4+z,3/4+y,3/4+x
46 1/4+z,3/4-y,1/4-x
47 1/4-z,1/4+y,3/4-x
48 3/4-z,1/4-y,1/4+x
_cell_length_a 28.065(3)
_cell_length_b 28.065(3)
_cell_length_c 28.065(3)
_cell_angle_alpha 90
_cell_angle_beta 90
_cell_angle_gamma 90
_cell_formula_units_Z 16
loop_
_atom_type_symbol
_atom_type_radius_bond
C 0.68
H 0.23
O 0.68
Si 1.20
W 1.62
loop_
_atom_site_label
_atom_site_type_symbol
_atom_site_fract_x
_atom_site_fract_y
_atom_site_fract_z
W1 W 1.012543(5) 0.442460(5) 0.946156(5)
O1 O 0.96278(10) 0.43185(9) 0.87907(10)
C1 C 0.95341(17) 0.38657(15) 0.85723(16)
H1 H 0.93180 0.36790 0.87670
H2 H 0.98280 0.36880 0.85310
C2 C 0.93090(16) 0.39773(15) 0.80897(16)
H3 H 0.90540 0.37560 0.80170
H4 H 0.95440 0.39650 0.78370
C3 C 0.92172(16) 0.46082(16) 0.86645(15)
H5 H 0.92890 0.49450 0.86990
H6 H 0.89460 0.45310 0.88650
C4 C 0.91154(18) 0.44872(16) 0.81535(16)
H7 H 0.92760 0.47070 0.79410
H8 H 0.87760 0.44980 0.80900
Si1 Si 0.96166(4) 0.34182(4) 0.99585(4)
Si2 Si 1.08693(4) 0.47889(4) 0.85476(4)
C5 C 0.91161(15) 0.32611(18) 1.03775(17)
H9 H 0.91250 0.34690 1.06490
H10 H 0.91510 0.29370 1.04810
H11 H 0.88170 0.32970 1.02160
C6 C 1.01907(15) 0.33181(15) 1.02825(16)
H12 H 1.04520 0.34030 1.00790
H13 H 1.02160 0.29880 1.03700
H14 H 1.01980 0.35120 1.05640
C7 C 0.95972(15) 0.29992(14) 0.94418(17)
H15 H 0.93110 0.30530 0.92620
H16 H 0.96020 0.26770 0.95560
H17 H 0.98690 0.30530 0.92410
C8 C 1.09630(16) 0.52992(15) 0.81355(15)
H18 H 1.06840 0.53420 0.79420
H19 H 1.12330 0.52360 0.79350
H20 H 1.10200 0.55830 0.83170
C9 C 1.14220(15) 0.46651(17) 0.88982(16)
H21 H 1.16730 0.45690 0.86860
H22 H 1.13610 0.44150 0.91230
H23 H 1.15170 0.49480 0.90660
C10 C 1.07340(19) 0.42557(16) 0.81754(18)
H24 H 1.04420 0.43070 0.80060
H25 H 1.07030 0.39810 0.83770
H26 H 1.09880 0.42050 0.79520
C11 C 0.95264(14) 0.40528(13) 0.97767(14)
H27 H 0.94270 0.42300 1.00560
H28 H 0.92650 0.40620 0.95510
C12 C 1.03616(14) 0.49468(13) 0.89483(13)
H29 H 1.00910 0.50280 0.87490
H30 H 1.04490 0.52330 0.91220
O2 O 1.04301(9) 0.46092(9) 0.99770(9)
O3 O 1.04346(9) 0.39395(9) 0.92593(9)
W1G W 1.053844(5) 0.512543(5) 1.057540(5)
O1G O 1.12093(10) 0.46278(9) 1.06815(10)
C1G C 1.14277(17) 0.45341(15) 1.11343(16)
H1G H 1.12330 0.43180 1.13210
H2G H 1.14690 0.48280 1.13120
C2G C 1.19103(16) 0.43090(15) 1.10227(16)
H3G H 1.19830 0.40540 1.12440
H4G H 1.21630 0.45440 1.10350
C3G C 1.13355(16) 0.42172(16) 1.03918(15)
H5G H 1.13010 0.42890 1.00550
H6G H 1.11350 0.39460 1.04690
C4G C 1.18465(18) 0.41154(16) 1.05128(16)
H7G H 1.20590 0.42760 1.02930
H8G H 1.19100 0.37760 1.05020
Si1G Si 1.00415(4) 0.46166(4) 1.15818(4)
Si2G Si 1.14524(4) 0.58693(4) 1.02111(4)
C5G C 0.96225(15) 0.41161(18) 1.17389(17)
H9G H 0.93510 0.41250 1.15310
H10G H 0.95190 0.41510 1.20630
H11G H 0.97840 0.38170 1.17030
C6G C 0.97175(15) 0.51907(15) 1.16819(16)
H12G H 0.99210 0.54520 1.15970
H13G H 0.96300 0.52160 1.20120
H14G H 0.94360 0.51980 1.14880
C7G C 1.05582(15) 0.45972(14) 1.20008(17)
H15G H 1.07380 0.43110 1.19470
H16G H 1.04440 0.46020 1.23230
H17G H 1.07590 0.48690 1.19470
C8G C 1.18645(16) 0.59630(15) 0.97008(15)
H18G H 1.20580 0.56840 0.96580
H19G H 1.20650 0.62330 0.97640
H20G H 1.16830 0.60200 0.94170
C9G C 1.11018(15) 0.64220(17) 1.03349(16)
H21G H 1.13140 0.66730 1.04310
H22G H 1.08770 0.63610 1.05850
H23G H 1.09340 0.65170 1.00520
C10G C 1.18246(19) 0.57340(16) 1.07443(18)
H24G H 1.19940 0.54420 1.06930
H25G H 1.16230 0.57030 1.10190
H26G H 1.20480 0.59880 1.07950
C11G C 1.02233(14) 0.45264(13) 1.09472(14)
H27G H 0.99440 0.44270 1.07700
H28G H 1.04490 0.42650 1.09380
C12G C 1.10517(14) 0.53616(13) 1.00532(13)
H29G H 1.12510 0.50910 0.99720
H30G H 1.08780 0.54490 0.97670
O2G O 1.00230(9) 0.54301(9) 1.03908(9)
O3G O 1.07407(9) 0.54346(9) 1.10605(9)
W1J W 0.942460(5) 0.553844(5) 0.987457(5)
O1J O 0.93185(10) 0.62093(9) 1.03722(10)
C1J C 0.88657(17) 0.64277(15) 1.04659(16)
H1J H 0.86790 0.62330 1.06820
H2J H 0.86880 0.64690 1.01720
C2J C 0.89773(16) 0.69103(15) 1.06910(16)
H3J H 0.87560 0.69830 1.09460
H4J H 0.89650 0.71630 1.04560
C3J C 0.96082(16) 0.63355(16) 1.07828(15)
H5J H 0.99450 0.63010 1.07110
H6J H 0.95310 0.61350 1.10540
C4J C 0.94872(18) 0.68465(16) 1.08846(16)
H7J H 0.97070 0.70590 1.07240
H8J H 0.94980 0.69100 1.12240
Si1J Si 0.84182(4) 0.50415(4) 1.03834(4)
Si2J Si 0.97889(4) 0.64524(4) 0.91307(4)
C5J C 0.82611(15) 0.46225(18) 1.08839(17)
H9J H 0.84690 0.43510 1.08750
H10J H 0.79370 0.45190 1.08490
H11J H 0.82970 0.47840 1.11830
C6J C 0.83181(15) 0.47175(15) 0.98093(16)
H12J H 0.84030 0.49210 0.95480
H13J H 0.79880 0.46300 0.97840
H14J H 0.85120 0.44360 0.98020
C7J C 0.79992(15) 0.55582(14) 1.04028(17)
H15J H 0.80530 0.57380 1.06890
H16J H 0.76770 0.54440 1.03980
H17J H 0.80530 0.57590 1.01310
C8J C 1.02992(16) 0.68645(15) 0.90370(15)
H18J H 1.03420 0.70580 0.93160
H19J H 1.02360 0.70650 0.87670
H20J H 1.05830 0.66830 0.89800
C9J C 0.96651(15) 0.61018(17) 0.85780(16)
H21J H 0.95690 0.63140 0.83270
H22J H 0.94150 0.58770 0.86390
H23J H 0.99480 0.59340 0.84830
C10J C 0.92557(19) 0.68246(16) 0.92660(18)
H24J H 0.93070 0.69940 0.95580
H25J H 0.89810 0.66230 0.92970
H26J H 0.92050 0.70480 0.90120
C11J C 0.90528(14) 0.52233(13) 1.04736(14)
H27J H 0.92300 0.49440 1.05730
H28J H 0.90620 0.54490 1.07350
C12J C 0.99468(14) 0.60517(13) 0.96384(13)
H29J H 1.00280 0.62510 0.99090
H30J H 1.02330 0.58780 0.95510
O2J O 0.96092(9) 0.50230(9) 0.95699(9)
O3J O 0.89395(9) 0.57407(9) 0.95654(9)
#END

data_CSD_CIF_GUQZEZ
_audit_creation_date 2015-09-24
_audit_creation_method CSD-ConQuest-V1
_database_code_CSD GUQZEZ
_database_code_depnum_ccdc_archive 'CCDC 1426967'
_chemical_formula_sum 'C36 H54 N3 O1 V1'
_chemical_formula_moiety
;
C36 H54 N3 O1 V1
;
_journal_coden_Cambridge 4
_journal_volume 135
_journal_year 2013
_journal_page_first 11357
_journal_name_full 'J.Am.Chem.Soc. '
loop_
_publ_author_name
"T.D.Palluccio"
"E.V.Rybak-Akimova"
"S.Majumdar"
"Xiaochen Cai"
"Megan Chui"
"M.Temprado"
"J.S.Silvia"
"A.F.Cozzolino"
"D.Tofan"
"A.Velian"
"C.C.Cummins"
"B.Captain"
"C.D.Hoff"
_chemical_name_systematic
;
tris(t-butyl(3,5-dimethylphenyl)amino)-(oxo)-vanadium(v)
;
_cell_volume  13982.193
_exptl_crystal_colour 'red'
_exptl_crystal_density_diffrn 1.132
_exptl_crystal_description 'Block'
_diffrn_ambient_temperature 296
#These two values have been output from a single CSD field.
_refine_ls_R_factor_gt 0.036
_refine_ls_wR_factor_gt 0.036
_symmetry_cell_setting cubic
_symmetry_space_group_name_H-M 'I -4 3 d'
_symmetry_Int_Tables_number 220
loop_
_symmetry_equiv_pos_site_id
_symmetry_equiv_pos_as_xyz
1 x,y,z
2 1/2-x,-y,1/2+z
3 -x,1/2+y,1/2-z
4 1/2+x,1/2-y,-z
5 z,x,y
6 1/2+z,1/2-x,-y
7 1/2-z,-x,1/2+y
8 -z,1/2+x,1/2-y
9 y,z,x
10 -y,1/2+z,1/2-x
11 1/2+y,1/2-z,-x
12 1/2-y,-z,1/2+x
13 1/4+y,1/4+x,1/4+z
14 1/4-y,3/4-x,3/4+z
15 3/4+y,1/4-x,3/4-z
16 3/4-y,3/4+x,1/4-z
17 1/4+x,1/4+z,1/4+y
18 3/4-x,3/4+z,1/4-y
19 1/4-x,3/4-z,3/4+y
20 3/4+x,1/4-z,3/4-y
21 1/4+z,1/4+y,1/4+x
22 3/4+z,1/4-y,3/4-x
23 3/4-z,3/4+y,1/4-x
24 1/4-z,3/4-y,3/4+x
25 1/2+x,1/2+y,1/2+z
26 -x,1/2-y,z
27 1/2-x,y,-z
28 x,-y,1/2-z
29 1/2+z,1/2+x,1/2+y
30 z,-x,1/2-y
31 -z,1/2-x,y
32 1/2-z,x,-y
33 1/2+y,1/2+z,1/2+x
34 1/2-y,z,-x
35 y,-z,1/2-x
36 -y,1/2-z,x
37 3/4+y,3/4+x,3/4+z
38 3/4-y,1/4-x,1/4+z
39 1/4+y,3/4-x,1/4-z
40 1/4-y,1/4+x,3/4-z
41 3/4+x,3/4+z,3/4+y
42 1/4-x,1/4+z,3/4-y
43 3/4-x,1/4-z,1/4+y
44 1/4+x,3/4-z,1/4-y
45 3/4+z,3/4+y,3/4+x
46 1/4+z,3/4-y,1/4-x
47 1/4-z,1/4+y,3/4-x
48 3/4-z,1/4-y,1/4+x
_cell_length_a 24.0912(9)
_cell_length_b 24.0912(9)
_cell_length_c 24.0912(9)
_cell_angle_alpha 90
_cell_angle_beta 90
_cell_angle_gamma 90
_cell_formula_units_Z 16
loop_
_atom_type_symbol
_atom_type_radius_bond
C 0.68
H 0.23
N 0.68
O 0.68
V 1.53
loop_
_atom_site_label
_atom_site_type_symbol
_atom_site_fract_x
_atom_site_fract_y
_atom_site_fract_z
V1 V 1.063690(13) 0.563690(13) 0.936310(13)
O1 O 1.10180(6) 0.60180(6) 0.89820(6)
N1 N 0.99205(6) 0.56254(7) 0.90507(6)
C1 C 0.97604(9) 0.57275(10) 0.84537(8)
C2 C 0.93068(11) 0.53119(13) 0.82857(10)
H1 H 0.94470 0.49410 0.83200
H2 H 0.91990 0.53780 0.79080
H3 H 0.89900 0.53570 0.85240
C3 C 1.0257(1) 0.56313(13) 0.80756(9)
H4 H 1.05370 0.59040 0.81520
H5 H 1.01420 0.56620 0.76950
H6 H 1.04050 0.52670 0.81410
C4 C 0.95486(15) 0.63158(12) 0.83769(11)
H7 H 0.92230 0.63700 0.86000
H8 H 0.94580 0.63750 0.79930
H9 H 0.98310 0.65740 0.84880
C5 C 0.94642(7) 0.56008(9) 0.94335(8)
C6 C 0.92484(9) 0.60809(9) 0.96692(8)
H10 H 0.93960 0.64230 0.95670
C7 C 0.88200(9) 0.60652(11) 1.00509(10)
C8 C 0.86067(9) 0.55510(12) 1.01993(10)
H11 H 0.83200 0.55340 1.04570
C9 C 0.88090(9) 0.50637(11) 0.99734(10)
C10 C 0.92409(8) 0.50919(9) 0.95914(9)
H12 H 0.93820 0.47660 0.94400
C11 C 0.85918(12) 0.65907(13) 1.02991(12)
H13 H 0.81990 0.66080 1.02350
H14 H 0.87690 0.69050 1.01300
H15 H 0.86620 0.65940 1.06910
C12 C 0.85700(12) 0.45022(12) 1.01418(12)
H16 H 0.85870 0.44640 1.05380
H17 H 0.87820 0.42110 0.99710
H18 H 0.81910 0.44780 1.00220
N1G N 1.09493(6) 0.49205(7) 0.93746(6)
C1G C 1.15463(9) 0.47604(10) 0.92725(8)
C2G C 1.17143(11) 0.43068(13) 0.96881(10)
H1G H 1.16800 0.44470 1.00590
H2G H 1.20920 0.41990 0.96220
H3G H 1.14760 0.39900 0.96430
C3G C 1.19244(10) 0.52570(13) 0.93687(9)
H4G H 1.18480 0.55370 0.90960
H5G H 1.23050 0.51420 0.93380
H6G H 1.18590 0.54050 0.97330
C4G C 1.16231(15) 0.45486(12) 0.86842(11)
H7G H 1.14000 0.42230 0.86300
H8G H 1.20070 0.44580 0.86250
H9G H 1.15120 0.48310 0.84260
C5G C 1.05665(7) 0.44642(9) 0.93992(8)
C6G C 1.03308(9) 0.42484(9) 0.89191(8)
H10G H 1.04330 0.43960 0.85770
C7G C 0.99491(9) 0.38200(11) 0.89348(10)
C8G C 0.98007(9) 0.36067(12) 0.9449(1)
H11G H 0.95430 0.33200 0.94660
C9G C 1.00266(9) 0.38090(11) 0.99363(10)
C10G C 1.04086(8) 0.42409(9) 0.99081(9)
H12G H 1.05600 0.43820 1.02340
C11G C 0.97009(12) 0.35918(13) 0.84093(12)
H13G H 0.97650 0.31990 0.83920
H14G H 0.98700 0.37690 0.80950
H15G H 0.93090 0.36620 0.84060
C12G C 0.98582(12) 0.35700(12) 1.04978(12)
H16G H 0.94620 0.35870 1.05360
H17G H 1.00290 0.37820 1.07890
H18G H 0.99780 0.31910 1.05220
N1J N 1.06254(6) 0.59493(7) 1.00795(6)
C1J C 1.07275(9) 0.65463(10) 1.02396(8)
C2J C 1.03119(11) 0.67143(13) 1.06932(10)
H1J H 0.99410 0.66800 1.05530
H2J H 1.03780 0.70920 1.08010
H3J H 1.03570 0.64760 1.10100
C3J C 1.06313(10) 0.69244(13) 0.97430(9)
H4J H 1.09040 0.68480 0.94630
H5J H 1.06620 0.73050 0.98580
H6J H 1.02670 0.68590 0.95950
C4J C 1.13158(15) 0.66231(12) 1.04514(11)
H7J H 1.13700 0.64000 1.07770
H8J H 1.13750 0.70070 1.05420
H9J H 1.15740 0.65120 1.01690
C5J C 1.06008(7) 0.55665(9) 1.05358(8)
C6J C 1.10809(9) 0.53308(9) 1.07516(8)
H10J H 1.14230 0.54330 1.06040
C7J C 1.10652(9) 0.49491(11) 1.1180(1)
C8J C 1.05510(9) 0.48007(12) 1.13933(10)
H11J H 1.05340 0.45430 1.16800
C9J C 1.00637(9) 0.50266(11) 1.1191(1)
C10J C 1.00919(8) 0.54086(9) 1.07591(9)
H12J H 0.97660 0.55600 1.06180
C11J C 1.15907(12) 0.47009(13) 1.14082(12)
H13J H 1.16080 0.47650 1.18010
H14J H 1.19050 0.48700 1.12310
H15J H 1.15940 0.43090 1.13380
C12J C 0.95022(12) 0.48582(12) 1.14300(12)
H16J H 0.94640 0.44620 1.14130
H17J H 0.92110 0.50290 1.12180
H18J H 0.94780 0.49780 1.18090
#END

data_CSD_CIF_HUMJUU
_audit_creation_date 2003-02-11
_audit_creation_method CSD-ConQuest-V1
_database_code_CSD HUMJUU
_database_code_depnum_ccdc_archive 'CCDC 202323'
_chemical_formula_sum 'C9 H18 N4 O3'
_chemical_formula_moiety
;
C9 H18 N4 O3
;
_journal_coeditor_code "IUCr OM6117"
_journal_coden_Cambridge 1370
_journal_volume 58
_journal_year 2002
_journal_page_first o1354
_journal_name_full 'Acta Crystallogr.,Sect.E:Struct.Rep.Online '
loop_
_publ_author_name
"M.J.Goldcamp"
"J.A.Krause Bauer"
"M.J.Baldwin"
_chemical_name_systematic
;
tris(2-(Hydroxyimino)propyl)amine
;
_chemical_name_common
;
tris(1-Propan-2-onyl oxime)amine
;
_cell_volume   5059.835
_exptl_crystal_colour 'colorless'
_exptl_crystal_density_diffrn 1.209
_exptl_crystal_description 'wedge'
_diffrn_ambient_temperature 150
#These two values have been output from a single CSD field.
_refine_ls_R_factor_gt 0.0381
_refine_ls_wR_factor_gt 0.0381
_symmetry_cell_setting cubic
_symmetry_space_group_name_H-M 'I -4 3 d'
_symmetry_Int_Tables_number 220
loop_
_symmetry_equiv_pos_site_id
_symmetry_equiv_pos_as_xyz
1 x,y,z
2 1/2-x,-y,1/2+z
3 -x,1/2+y,1/2-z
4 1/2+x,1/2-y,-z
5 z,x,y
6 1/2+z,1/2-x,-y
7 1/2-z,-x,1/2+y
8 -z,1/2+x,1/2-y
9 y,z,x
10 -y,1/2+z,1/2-x
11 1/2+y,1/2-z,-x
12 1/2-y,-z,1/2+x
13 1/4+y,1/4+x,1/4+z
14 1/4-y,-1/4-x,-1/4+z
15 -1/4+y,1/4-x,-1/4-z
16 -1/4-y,-1/4+x,1/4-z
17 1/4+x,1/4+z,1/4+y
18 -1/4-x,-1/4+z,1/4-y
19 1/4-x,-1/4-z,-1/4+y
20 -1/4+x,1/4-z,-1/4-y
21 1/4+z,1/4+y,1/4+x
22 -1/4+z,1/4-y,-1/4-x
23 -1/4-z,-1/4+y,1/4-x
24 1/4-z,-1/4-y,-1/4+x
25 1/2+x,1/2+y,1/2+z
26 -x,1/2-y,z
27 1/2-x,y,-z
28 x,-y,1/2-z
29 1/2+z,1/2+x,1/2+y
30 z,-x,1/2-y
31 -z,1/2-x,y
32 1/2-z,x,-y
33 1/2+y,1/2+z,1/2+x
34 1/2-y,z,-x
35 y,-z,1/2-x
36 -y,1/2-z,x
37 -1/4+y,-1/4+x,-1/4+z
38 -1/4-y,1/4-x,1/4+z
39 1/4+y,-1/4-x,1/4-z
40 1/4-y,1/4+x,-1/4-z
41 -1/4+x,-1/4+z,-1/4+y
42 1/4-x,1/4+z,-1/4-y
43 -1/4-x,1/4-z,1/4+y
44 1/4+x,-1/4-z,1/4-y
45 -1/4+z,-1/4+y,-1/4+x
46 1/4+z,-1/4-y,1/4-x
47 1/4-z,1/4+y,-1/4-x
48 -1/4-z,1/4-y,1/4+x
_cell_length_a 17.1677(9)
_cell_length_b 17.1677(9)
_cell_length_c 17.1677(9)
_cell_angle_alpha 90
_cell_angle_beta 90
_cell_angle_gamma 90
_cell_formula_units_Z 16
loop_
_atom_type_symbol
_atom_type_radius_bond
C 0.68
H 0.23
N 0.68
O 0.68
loop_
_atom_site_label
_atom_site_type_symbol
_atom_site_fract_x
_atom_site_fract_y
_atom_site_fract_z
O1 O 0.31224(10) 0.43507(10) 0.89499(11)
H1 H 0.31980 0.39040 0.91790
N1 N 0.10624(9) 0.60624(9) 0.89376(9)
N2 N 0.2318(1) 0.44698(10) 0.90191(11)
C1 C 0.12282(12) 0.52550(11) 0.87271(13)
H2 H 0.09980 0.51400 0.82110
H3 H 0.09860 0.49020 0.91140
C2 C 0.20967(12) 0.51097(12) 0.87001(12)
C3 C 0.26180(13) 0.56810(13) 0.83033(14)
H4 H 0.27010 0.61310 0.86440
H5 H 0.23760 0.58530 0.78160
H6 H 0.31200 0.54330 0.81890
C1G C 0.12729(12) 0.62282(11) 0.97450(13)
H2G H 0.17890 0.59980 0.98600
H3G H 0.08860 0.59860 1.00980
C2G C 0.12999(12) 0.70967(12) 0.98903(12)
N2G N 0.09809(10) 0.7318(1) 1.05302(11)
O1G O 0.10501(10) 0.81224(10) 1.06493(11)
H1G H 0.08210 0.81980 1.10960
C3G C 0.16967(13) 0.76180(13) 0.93190(14)
H4G H 0.13560 0.77010 0.88690
H5G H 0.21840 0.73760 0.91470
H6G H 0.18110 0.81200 0.95670
C1J C 0.02550(12) 0.62729(11) 0.87718(13)
H2J H 0.01400 0.67890 0.90020
H3J H -0.00980 0.58860 0.90140
C2J C 0.01097(12) 0.62999(12) 0.79033(12)
N2J N -0.05302(10) 0.59809(10) 0.76820(11)
O1J O -0.06493(10) 0.60501(10) 0.68776(11)
H1J H -0.10960 0.58210 0.68020
C3J C 0.06810(13) 0.66967(13) 0.73820(14)
H4J H 0.11310 0.63560 0.72990
H5J H 0.08530 0.71840 0.76240
H6J H 0.04330 0.68110 0.68800
#END

data_CSD_CIF_IKARUJ
_audit_creation_date 2016-04-05
_audit_creation_method CSD-ConQuest-V1
_database_code_CSD IKARUJ
_database_code_depnum_ccdc_archive 'CCDC 1472310'
_chemical_formula_sum 'C9 H18 N3 P1'
_chemical_formula_moiety
;
C9 H18 N3 P1
;
_journal_coden_Cambridge 4
_journal_volume 137
_journal_year 2015
_journal_page_first 5526
_journal_name_full 'J.Am.Chem.Soc. '
loop_
_publ_author_name
"S.N.Britvin"
"A.Lotnyk"
_chemical_name_systematic
;
1,4,7-triaza-9-phosphatricyclo[5.3.2.1^4,9^]tridecane
;
_cell_volume   3938.099
_exptl_crystal_colour 'colorless'
_exptl_crystal_density_diffrn 1.344
_exptl_crystal_description 'dodecahedron'
_diffrn_ambient_temperature 100
#These two values have been output from a single CSD field.
_refine_ls_R_factor_gt 0.0224
_refine_ls_wR_factor_gt 0.0224
_symmetry_cell_setting cubic
_symmetry_space_group_name_H-M 'I -4 3 d'
_symmetry_Int_Tables_number 220
loop_
_symmetry_equiv_pos_site_id
_symmetry_equiv_pos_as_xyz
1 x,y,z
2 1/2-x,-y,1/2+z
3 -x,1/2+y,1/2-z
4 1/2+x,1/2-y,-z
5 z,x,y
6 1/2+z,1/2-x,-y
7 1/2-z,-x,1/2+y
8 -z,1/2+x,1/2-y
9 y,z,x
10 -y,1/2+z,1/2-x
11 1/2+y,1/2-z,-x
12 1/2-y,-z,1/2+x
13 1/4+y,1/4+x,1/4+z
14 1/4-y,3/4-x,3/4+z
15 3/4+y,1/4-x,3/4-z
16 3/4-y,3/4+x,1/4-z
17 1/4+x,1/4+z,1/4+y
18 3/4-x,3/4+z,1/4-y
19 1/4-x,3/4-z,3/4+y
20 3/4+x,1/4-z,3/4-y
21 1/4+z,1/4+y,1/4+x
22 3/4+z,1/4-y,3/4-x
23 3/4-z,3/4+y,1/4-x
24 1/4-z,3/4-y,3/4+x
25 1/2+x,1/2+y,1/2+z
26 -x,1/2-y,z
27 1/2-x,y,-z
28 x,-y,1/2-z
29 1/2+z,1/2+x,1/2+y
30 z,-x,1/2-y
31 -z,1/2-x,y
32 1/2-z,x,-y
33 1/2+y,1/2+z,1/2+x
34 1/2-y,z,-x
35 y,-z,1/2-x
36 -y,1/2-z,x
37 3/4+y,3/4+x,3/4+z
38 3/4-y,1/4-x,1/4+z
39 1/4+y,3/4-x,1/4-z
40 1/4-y,1/4+x,3/4-z
41 3/4+x,3/4+z,3/4+y
42 1/4-x,1/4+z,3/4-y
43 3/4-x,1/4-z,1/4+y
44 1/4+x,3/4-z,1/4-y
45 3/4+z,3/4+y,3/4+x
46 1/4+z,3/4-y,1/4-x
47 1/4-z,1/4+y,3/4-x
48 3/4-z,1/4-y,1/4+x
_cell_length_a 15.7917(2)
_cell_length_b 15.7917(2)
_cell_length_c 15.7917(2)
_cell_angle_alpha 90
_cell_angle_beta 90
_cell_angle_gamma 90
_cell_formula_units_Z 16
loop_
_atom_type_symbol
_atom_type_radius_bond
C 0.68
H 0.23
N 0.68
P 1.05
loop_
_atom_site_label
_atom_site_type_symbol
_atom_site_fract_x
_atom_site_fract_y
_atom_site_fract_z
C1 C 0.37424(4) 0.49541(5) 0.51122(5)
C2 C 0.46977(4) 0.53750(4) 0.63057(4)
C3 C 0.44744(4) 0.63284(4) 0.50739(4)
N1 N 0.41946(4) 0.56067(4) 0.55698(4)
P1 P 0.429821(12) 0.429821(12) 0.429821(12)
H1 H 0.4366(8) 0.5426(8) 0.6833(8)
H2 H 0.5152(7) 0.5784(8) 0.6383(7)
H3 H 0.3273(11) 0.5252(8) 0.4790(9)
H4 H 0.3491(8) 0.4558(8) 0.5493(8)
H5 H 0.4071(7) 0.6413(7) 0.4628(7)
H6 H 0.4461(8) 0.6822(8) 0.5414(8)
C1D C 0.51122(4) 0.37424(5) 0.49541(5)
C2D C 0.63057(4) 0.46977(4) 0.53750(4)
C3D C 0.50739(4) 0.44744(4) 0.63284(4)
N1D N 0.55698(4) 0.41946(4) 0.56067(4)
H1D H 0.6833(8) 0.4366(8) 0.5426(8)
H2D H 0.6383(7) 0.5152(8) 0.5784(7)
H3D H 0.4790(11) 0.3273(8) 0.5252(9)
H4D H 0.5493(8) 0.3491(8) 0.4558(8)
H5D H 0.4628(7) 0.4071(7) 0.6413(7)
H6D H 0.5414(8) 0.4461(8) 0.6822(8)
C1H C 0.49541(4) 0.51122(5) 0.37424(5)
C2H C 0.53750(4) 0.63057(4) 0.46977(4)
C3H C 0.63284(4) 0.50739(4) 0.44744(4)
N1H N 0.56067(4) 0.55698(4) 0.41946(4)
H1H H 0.5426(8) 0.6833(8) 0.4366(8)
H2H H 0.5784(7) 0.6383(8) 0.5152(7)
H3H H 0.5252(11) 0.4790(8) 0.3273(9)
H4H H 0.4558(8) 0.5493(8) 0.3491(8)
H5H H 0.6413(7) 0.4628(7) 0.4071(7)
H6H H 0.6822(8) 0.5414(8) 0.4461(8)
#END

data_CSD_CIF_INUWEU
_audit_creation_date 2011-06-23
_audit_creation_method CSD-ConQuest-V1
_database_code_CSD INUWEU
_database_code_depnum_ccdc_archive 'CCDC 781479'
_chemical_formula_sum 'C25 H43 B1 Fe1 N6'
_chemical_formula_moiety
;
C25 H43 B1 Fe1 N6
;
_journal_coden_Cambridge 1220
_journal_volume 17
_journal_year 2011
_journal_page_first 1310
_journal_name_full 'Chem.-Eur.J. '
loop_
_publ_author_name
"F.A.Jove"
"C.Pariya"
"M.Scoblete"
"G.P.A.Yap"
"K.H.Theopold"
_chemical_name_systematic
;
(Hydrogen tris(3-t-butyl-5-methylpyrazolyl)borate-N,N',N'')-methyl-iron
;
_cell_volume  11150.846
_exptl_crystal_colour 'colorless'
_exptl_crystal_density_diffrn 1.178
_exptl_crystal_description 'block'
_diffrn_ambient_temperature 120
#These two values have been output from a single CSD field.
_refine_ls_R_factor_gt 0.0334
_refine_ls_wR_factor_gt 0.0334
_symmetry_cell_setting cubic
_symmetry_space_group_name_H-M 'I -4 3 d'
_symmetry_Int_Tables_number 220
loop_
_symmetry_equiv_pos_site_id
_symmetry_equiv_pos_as_xyz
1 x,y,z
2 1/2-x,-y,1/2+z
3 -x,1/2+y,1/2-z
4 1/2+x,1/2-y,-z
5 z,x,y
6 1/2+z,1/2-x,-y
7 1/2-z,-x,1/2+y
8 -z,1/2+x,1/2-y
9 y,z,x
10 -y,1/2+z,1/2-x
11 1/2+y,1/2-z,-x
12 1/2-y,-z,1/2+x
13 1/4+y,1/4+x,1/4+z
14 1/4-y,3/4-x,3/4+z
15 3/4+y,1/4-x,3/4-z
16 3/4-y,3/4+x,1/4-z
17 1/4+x,1/4+z,1/4+y
18 3/4-x,3/4+z,1/4-y
19 1/4-x,3/4-z,3/4+y
20 3/4+x,1/4-z,3/4-y
21 1/4+z,1/4+y,1/4+x
22 3/4+z,1/4-y,3/4-x
23 3/4-z,3/4+y,1/4-x
24 1/4-z,3/4-y,3/4+x
25 1/2+x,1/2+y,1/2+z
26 -x,1/2-y,z
27 1/2-x,y,-z
28 x,-y,1/2-z
29 1/2+z,1/2+x,1/2+y
30 z,-x,1/2-y
31 -z,1/2-x,y
32 1/2-z,x,-y
33 1/2+y,1/2+z,1/2+x
34 1/2-y,z,-x
35 y,-z,1/2-x
36 -y,1/2-z,x
37 3/4+y,3/4+x,3/4+z
38 3/4-y,1/4-x,1/4+z
39 1/4+y,3/4-x,1/4-z
40 1/4-y,1/4+x,3/4-z
41 3/4+x,3/4+z,3/4+y
42 1/4-x,1/4+z,3/4-y
43 3/4-x,1/4-z,1/4+y
44 1/4+x,3/4-z,1/4-y
45 3/4+z,3/4+y,3/4+x
46 1/4+z,3/4-y,1/4-x
47 1/4-z,1/4+y,3/4-x
48 3/4-z,1/4-y,1/4+x
_cell_length_a 22.341(7)
_cell_length_b 22.341(7)
_cell_length_c 22.341(7)
_cell_angle_alpha 90
_cell_angle_beta 90
_cell_angle_gamma 90
_cell_formula_units_Z 16
loop_
_atom_type_symbol
_atom_type_radius_bond
C 0.68
H 0.23
B 0.83
Fe 1.52
N 0.68
loop_
_atom_site_label
_atom_site_type_symbol
_atom_site_fract_x
_atom_site_fract_y
_atom_site_fract_z
Fe1 Fe 0.464959(9) 0.535041(9) 0.035041(9)
B1 B 0.54413(8) 0.45587(8) -0.04413(8)
H1 H 0.5714(9) 0.4286(9) -0.0714(9)
N1 N 0.46062(6) 0.44000(6) 0.03154(6)
N2 N 0.50453(6) 0.41593(6) -0.00397(6)
C1 C 0.43288(7) 0.39387(7) 0.05824(6)
C2 C 0.45971(7) 0.34001(6) 0.04027(7)
H2 H 0.44900 0.30080 0.05260
C3 C 0.50500(7) 0.35570(7) 0.00086(7)
C4 C 0.38079(8) 0.40237(8) 0.10089(7)
C5 C 0.35381(9) 0.34150(8) 0.1171(1)
H3 H 0.33890 0.32190 0.08080
H4 H 0.32070 0.34720 0.14520
H5 H 0.38460 0.31640 0.13570
C6 C 0.40297(10) 0.43314(10) 0.15812(8)
H6 H 0.41920 0.47260 0.14810
H7 H 0.43430 0.40870 0.17660
H8 H 0.36950 0.43780 0.18610
C7 C 0.33189(8) 0.44013(9) 0.07130(9)
H9 H 0.34760 0.48020 0.06270
H10 H 0.29750 0.44340 0.09840
H11 H 0.31930 0.42100 0.03390
C8 C 0.54935(7) 0.31747(7) -0.03143(8)
H12 H 0.58990 0.33170 -0.02280
H13 H 0.54190 0.31980 -0.07460
H14 H 0.54530 0.27590 -0.01810
C9 C 0.41194(8) 0.58806(8) 0.08806(8)
H15 H 0.42380 0.63000 0.08320
N1F N 0.46846(6) 0.53938(6) -0.06000(6)
N1I N 0.56000(6) 0.53154(6) 0.03938(6)
N2F N 0.50397(6) 0.49547(6) -0.08407(6)
N2I N 0.58407(6) 0.49603(6) -0.00453(6)
C1F C 0.44176(7) 0.56712(7) -0.10613(6)
C1I C 0.60613(7) 0.55824(7) 0.06712(6)
C2F C 0.45973(7) 0.54029(6) -0.15999(7)
C2I C 0.65999(7) 0.54027(6) 0.04029(7)
H2F H 0.44740 0.55100 -0.19920
H2I H 0.69920 0.55260 0.05100
C3F C 0.49914(7) 0.49500(7) -0.14430(7)
C3I C 0.64430(7) 0.50086(7) -0.00500(7)
C4F C 0.39911(8) 0.61921(8) -0.09763(7)
C4I C 0.59763(8) 0.60089(8) 0.11921(7)
C5F C 0.38290(9) 0.64619(8) -0.1585(1)
C5I C 0.65850(9) 0.61710(8) 0.14619(10)
H3F H 0.41920 0.66110 -0.17810
H3I H 0.67810 0.58080 0.16110
H4F H 0.35480 0.67930 -0.15280
H4I H 0.65280 0.64520 0.17930
H5F H 0.36430 0.61540 -0.18360
H5I H 0.68360 0.63570 0.11540
C6F C 0.34188(10) 0.59703(10) -0.06686(8)
C6I C 0.56686(10) 0.65812(10) 0.09703(8)
H6F H 0.35190 0.58080 -0.02740
H6I H 0.52740 0.64810 0.08080
H7F H 0.32340 0.56570 -0.09130
H7I H 0.59130 0.67660 0.06570
H8F H 0.31390 0.63050 -0.06220
H8I H 0.56220 0.68610 0.13050
C7F C 0.42870(8) 0.66811(9) -0.05987(9)
C7I C 0.55987(8) 0.57130(9) 0.16811(9)
H9F H 0.43730 0.65240 -0.01980
H9I H 0.51980 0.56270 0.15240
H10F H 0.40160 0.70250 -0.05660
H10I H 0.55660 0.59840 0.20250
H11F H 0.46610 0.68070 -0.07900
H11I H 0.57900 0.53390 0.18070
C8F C 0.53143(7) 0.45065(7) -0.18253(8)
C8I C 0.68253(7) 0.46857(7) -0.04935(8)
H12F H 0.52280 0.41010 -0.16830
H12I H 0.66830 0.47720 -0.08990
H13F H 0.57460 0.45810 -0.18020
H13I H 0.68020 0.42540 -0.04190
H14F H 0.51810 0.45470 -0.22410
H14I H 0.72410 0.48190 -0.04530
H15F H 0.41680 0.57620 0.13000
H15I H 0.37000 0.58320 0.07620
#END

data_CSD_CIF_ITAGOZ
_audit_creation_date 2004-07-08
_audit_creation_method CSD-ConQuest-V1
_database_code_CSD ITAGOZ
_database_code_depnum_ccdc_archive 'CCDC 177983'
_chemical_formula_sum 'C10 H30 O3 Si7'
_chemical_formula_moiety
;
C10 H30 O3 Si7
;
_journal_coden_Cambridge 1220
_journal_volume 10
_journal_year 2004
_journal_page_first 1021
_journal_name_full 'Chem.-Eur.J. '
loop_
_publ_author_name
"R.Fischer"
"J.Baumgartner"
"G.Kickelbick"
"K.Hassler"
"C.Marschner"
_chemical_name_systematic
;
permethyl-4,6,10-trioxa-1,2,3,5,7,8,9-heptasilatricyclo[3.3.1.1^3,7^]decane
;
_cell_volume   9092.947
_exptl_crystal_colour 'colorless'
_exptl_crystal_density_diffrn 1.154
_exptl_crystal_description 'needles'
_exptl_crystal_preparation 'n-pentane'
_diffrn_ambient_temperature 293
#These two values have been output from a single CSD field.
_refine_ls_R_factor_gt 0.0202
_refine_ls_wR_factor_gt 0.0202
_symmetry_cell_setting cubic
_symmetry_space_group_name_H-M 'I -4 3 d'
_symmetry_Int_Tables_number 220
loop_
_symmetry_equiv_pos_site_id
_symmetry_equiv_pos_as_xyz
1 x,y,z
2 1/2-x,-y,1/2+z
3 -x,1/2+y,1/2-z
4 1/2+x,1/2-y,-z
5 z,x,y
6 1/2+z,1/2-x,-y
7 1/2-z,-x,1/2+y
8 -z,1/2+x,1/2-y
9 y,z,x
10 -y,1/2+z,1/2-x
11 1/2+y,1/2-z,-x
12 1/2-y,-z,1/2+x
13 1/4+y,1/4+x,1/4+z
14 1/4-y,-1/4-x,-1/4+z
15 -1/4+y,1/4-x,-1/4-z
16 -1/4-y,-1/4+x,1/4-z
17 1/4+x,1/4+z,1/4+y
18 -1/4-x,-1/4+z,1/4-y
19 1/4-x,-1/4-z,-1/4+y
20 -1/4+x,1/4-z,-1/4-y
21 1/4+z,1/4+y,1/4+x
22 -1/4+z,1/4-y,-1/4-x
23 -1/4-z,-1/4+y,1/4-x
24 1/4-z,-1/4-y,-1/4+x
25 1/2+x,1/2+y,1/2+z
26 -x,1/2-y,z
27 1/2-x,y,-z
28 x,-y,1/2-z
29 1/2+z,1/2+x,1/2+y
30 z,-x,1/2-y
31 -z,1/2-x,y
32 1/2-z,x,-y
33 1/2+y,1/2+z,1/2+x
34 1/2-y,z,-x
35 y,-z,1/2-x
36 -y,1/2-z,x
37 -1/4+y,-1/4+x,-1/4+z
38 -1/4-y,1/4-x,1/4+z
39 1/4+y,-1/4-x,1/4-z
40 1/4-y,1/4+x,-1/4-z
41 -1/4+x,-1/4+z,-1/4+y
42 1/4-x,1/4+z,-1/4-y
43 -1/4-x,1/4-z,1/4+y
44 1/4+x,-1/4-z,1/4-y
45 -1/4+z,-1/4+y,-1/4+x
46 1/4+z,-1/4-y,1/4-x
47 1/4-z,1/4+y,-1/4-x
48 -1/4-z,1/4-y,1/4+x
_cell_length_a 20.8722(5)
_cell_length_b 20.8722(5)
_cell_length_c 20.8722(5)
_cell_angle_alpha 90
_cell_angle_beta 90
_cell_angle_gamma 90
_cell_formula_units_Z 16
loop_
_atom_type_symbol
_atom_type_radius_bond
C 0.68
H 0.23
O 0.68
Si 1.20
loop_
_atom_site_label
_atom_site_type_symbol
_atom_site_fract_x
_atom_site_fract_y
_atom_site_fract_z
Si1 Si 0.977236(16) 0.981711(16) 0.079112(16)
Si2 Si 0.906712(16) 0.907122(17) 0.033609(17)
Si3 Si 0.923205(15) 0.923205(15) -0.076795(15)
O1 O 0.96183(5) 1.05374(4) 0.04957(4)
C1 C 0.97720(8) 0.98814(9) 0.16777(7)
H1 H 1.00770 1.02000 0.18080
H2 H 0.98860 0.94750 0.18610
H3 H 0.93530 1.00030 0.18220
C2 C 0.93024(8) 0.82364(8) 0.05909(8)
H4 H 0.92290 0.81880 0.10420
H5 H 0.97480 0.81680 0.04990
H6 H 0.90500 0.79290 0.03610
C3 C 0.82152(8) 0.92073(10) 0.06024(8)
H7 H 0.81830 0.91340 0.10550
H8 H 0.79370 0.89170 0.03800
H9 H 0.80920 0.96400 0.05080
C4 C 0.87067(7) 0.87067(7) -0.12933(7)
H10 H 0.87960 0.87940 -0.17360
H11 H 0.82640 0.87960 -0.12060
H12 H 0.87940 0.82640 -0.12040
Si2H Si 0.907122(16) 1.033609(17) -0.093288(17)
Si1H Si 0.981711(16) 1.079112(16) -0.022764(16)
O1H O 1.05374(5) 1.04957(4) -0.03817(4)
Si1D Si 1.079112(16) 0.977236(16) -0.018289(16)
Si2D Si 1.033609(16) 0.906712(17) -0.092878(17)
C2D C 1.05909(8) 0.93024(8) -0.17636(8)
H4D H 1.10420 0.92290 -0.18120
H5D H 1.04990 0.97480 -0.18320
H6D H 1.03610 0.90500 -0.20710
C3D C 1.06024(8) 0.82152(10) -0.07927(8)
H7D H 1.10550 0.81830 -0.08660
H8D H 1.03800 0.79370 -0.10830
H9D H 1.05080 0.80920 -0.03600
O1D O 1.04957(5) 0.96183(4) 0.05374(4)
C1H C 0.98814(8) 1.16777(9) -0.02280(7)
H1H H 1.02000 1.18080 0.00770
H2H H 0.94750 1.18610 -0.01140
H3H H 1.00030 1.18220 -0.06470
C1D C 1.16777(8) 0.97720(9) -0.01186(7)
H1D H 1.18080 1.00770 0.02000
H2D H 1.18610 0.98860 -0.05250
H3D H 1.18220 0.93530 0.00030
C2H C 0.82364(8) 1.05909(8) -0.06976(8)
H4H H 0.81880 1.10420 -0.07710
H5H H 0.81680 1.04990 -0.02520
H6H H 0.79290 1.03610 -0.09500
C3H C 0.92073(8) 1.06024(10) -0.17848(8)
H7H H 0.91340 1.10550 -0.18170
H8H H 0.89170 1.03800 -0.20630
H9H H 0.96400 1.05080 -0.19080
#END

data_CSD_CIF_ITAZEI
_audit_creation_date 2004-07-08
_audit_creation_method CSD-ConQuest-V1
_database_code_CSD ITAZEI
_database_code_depnum_ccdc_archive 'CCDC 234107'
_chemical_formula_sum 'C21 H24 Ga1 N7'
_chemical_formula_moiety
;
C21 H24 Ga1 N7
;
_journal_coden_Cambridge 9
_journal_volume 43
_journal_year 2004
_journal_page_first 1697
_journal_name_full 'Inorg.Chem. '
loop_
_publ_author_name
"Xiaofan Ren"
"B.D.Alleyne"
"P.I.Djurovich"
"C.Adachi"
"I.Tsyba"
"R.Bau"
"M.E.Thompson"
_chemical_name_systematic
;
(tris(2-(((Pyrrol-2-yl)methylene)amino)ethyl)amine)-gallium(iii)
;
_cell_volume   8288.644
_exptl_crystal_colour 'colorless'
_exptl_crystal_density_diffrn 1.424
_exptl_crystal_description 'prism'
_diffrn_ambient_temperature 296
#These two values have been output from a single CSD field.
_refine_ls_R_factor_gt 0.025
_refine_ls_wR_factor_gt 0.025
_symmetry_cell_setting cubic
_symmetry_space_group_name_H-M 'I -4 3 d'
_symmetry_Int_Tables_number 220
loop_
_symmetry_equiv_pos_site_id
_symmetry_equiv_pos_as_xyz
1 x,y,z
2 1/2-x,-y,1/2+z
3 -x,1/2+y,1/2-z
4 1/2+x,1/2-y,-z
5 z,x,y
6 1/2+z,1/2-x,-y
7 1/2-z,-x,1/2+y
8 -z,1/2+x,1/2-y
9 y,z,x
10 -y,1/2+z,1/2-x
11 1/2+y,1/2-z,-x
12 1/2-y,-z,1/2+x
13 1/4+y,1/4+x,1/4+z
14 1/4-y,-1/4-x,-1/4+z
15 -1/4+y,1/4-x,-1/4-z
16 -1/4-y,-1/4+x,1/4-z
17 1/4+x,1/4+z,1/4+y
18 -1/4-x,-1/4+z,1/4-y
19 1/4-x,-1/4-z,-1/4+y
20 -1/4+x,1/4-z,-1/4-y
21 1/4+z,1/4+y,1/4+x
22 -1/4+z,1/4-y,-1/4-x
23 -1/4-z,-1/4+y,1/4-x
24 1/4-z,-1/4-y,-1/4+x
25 1/2+x,1/2+y,1/2+z
26 -x,1/2-y,z
27 1/2-x,y,-z
28 x,-y,1/2-z
29 1/2+z,1/2+x,1/2+y
30 z,-x,1/2-y
31 -z,1/2-x,y
32 1/2-z,x,-y
33 1/2+y,1/2+z,1/2+x
34 1/2-y,z,-x
35 y,-z,1/2-x
36 -y,1/2-z,x
37 -1/4+y,-1/4+x,-1/4+z
38 -1/4-y,1/4-x,1/4+z
39 1/4+y,-1/4-x,1/4-z
40 1/4-y,1/4+x,-1/4-z
41 -1/4+x,-1/4+z,-1/4+y
42 1/4-x,1/4+z,-1/4-y
43 -1/4-x,1/4-z,1/4+y
44 1/4+x,-1/4-z,1/4-y
45 -1/4+z,-1/4+y,-1/4+x
46 1/4+z,-1/4-y,1/4-x
47 1/4-z,1/4+y,-1/4-x
48 -1/4-z,1/4-y,1/4+x
_cell_length_a 20.2377(4)
_cell_length_b 20.2377(4)
_cell_length_c 20.2377(4)
_cell_angle_alpha 90
_cell_angle_beta 90
_cell_angle_gamma 90
_cell_formula_units_Z 16
loop_
_atom_type_symbol
_atom_type_radius_bond
C 0.68
H 0.23
Ga 1.22
N 0.68
loop_
_atom_site_label
_atom_site_type_symbol
_atom_site_fract_x
_atom_site_fract_y
_atom_site_fract_z
Ga1 Ga 0.419403(9) 0.580597(9) 0.080597(9)
N1 N 0.51853(7) 0.58373(7) 0.08910(7)
N2 N 0.43025(8) 0.58411(7) 0.18447(7)
N3 N 0.32329(8) 0.67671(8) 0.17671(8)
C1 C 0.57229(10) 0.58702(10) 0.04996(11)
H1 H 0.57140 0.58830 0.00400
C2 C 0.62953(10) 0.58829(10) 0.08836(11)
H2 H 0.67280 0.59020 0.07290
C3 C 0.60957(10) 0.58621(10) 0.15405(11)
H3 H 0.63670 0.58670 0.19120
C4 C 0.54121(9) 0.58328(10) 0.15310(9)
C5 C 0.49121(10) 0.58252(10) 0.20268(8)
H4 H 0.50240 0.58090 0.24720
C6 C 0.37757(10) 0.58420(11) 0.23407(9)
H5 H 0.39560 0.57140 0.27660
H6 H 0.34400 0.55230 0.22190
C7 C 0.34676(10) 0.65228(10) 0.23938(9)
H7 H 0.31010 0.65050 0.27020
H8 H 0.37920 0.68280 0.25690
N1F N 0.41090(7) 0.48147(7) 0.08373(7)
C1F C 0.45004(10) 0.42771(10) 0.08702(11)
H1F H 0.49600 0.42860 0.08830
C2F C 0.41164(10) 0.37047(10) 0.08829(11)
H2F H 0.42710 0.32720 0.09020
C3F C 0.34595(10) 0.39043(10) 0.08621(11)
H3F H 0.30880 0.36330 0.08670
C4F C 0.34690(9) 0.45879(10) 0.08328(9)
C5F C 0.29732(10) 0.50879(10) 0.08252(8)
N2F N 0.31553(8) 0.56975(7) 0.08411(7)
N1I N 0.41627(7) 0.58910(7) -0.01853(7)
C1I C 0.41298(10) 0.54996(10) -0.07229(11)
H1I H 0.41170 0.50400 -0.07140
C2I C 0.41171(10) 0.58836(10) -0.12953(11)
H2I H 0.40980 0.57290 -0.17280
C3I C 0.41379(10) 0.65405(10) -0.10957(11)
H3I H 0.41330 0.69120 -0.13670
C4I C 0.41672(9) 0.6531(1) -0.04121(9)
C5I C 0.41748(10) 0.70268(10) 0.00879(8)
N2I N 0.41589(8) 0.68447(7) 0.06975(7)
C6I C 0.4158(1) 0.73407(11) 0.12243(9)
H5I H 0.42860 0.77660 0.10440
H6I H 0.44770 0.72190 0.15600
C7I C 0.34772(10) 0.73938(10) 0.15324(9)
C7F C 0.26062(10) 0.65324(10) 0.15228(9)
C6F C 0.26593(10) 0.62243(11) 0.08420(9)
H5F H 0.22340 0.60440 0.07140
H6F H 0.27810 0.65600 0.05230
H7F H 0.22980 0.68990 0.15050
H8F H 0.24310 0.62080 0.18280
H7I H 0.34950 0.77020 0.18990
H8I H 0.31720 0.75690 0.12080
H4I H 0.41910 0.74720 -0.00240
H4F H 0.25280 0.49760 0.08090
#END

data_CSD_CIF_JAKYUP
_audit_creation_date 1999-06-30
_audit_creation_method CSD-ConQuest-V1
_database_code_CSD JAKYUP
_chemical_formula_sum 'C24 H24 O3'
_chemical_formula_moiety
;
C24 H24 O3
;
_journal_coden_Cambridge 692
_journal_year 1998
_journal_page_first 417
_journal_name_full 'Synthesis '
loop_
_publ_author_name
"Z.Zhu"
"J.H.Espenson"
_chemical_name_systematic
;
2,4,6-Tribenzyl-1,3,5-trioxane
;
_chemical_melting_point 424.15
_cell_volume   8077.046
_exptl_crystal_density_diffrn 1.186
_exptl_special_details
;
Melting point range 424.15-425.15K

;
_exptl_crystal_description 'triangular chip'
_diffrn_ambient_temperature ?
_diffrn_special_details
;
The study was carried out at room temperature,in the range 283-303K

;
#These two values have been output from a single CSD field.
_refine_ls_R_factor_gt 0.0326
_refine_ls_wR_factor_gt 0.0326
_symmetry_cell_setting cubic
_symmetry_space_group_name_H-M 'I -4 3 d'
_symmetry_Int_Tables_number 220
loop_
_symmetry_equiv_pos_site_id
_symmetry_equiv_pos_as_xyz
1 x,y,z
2 1/4+y,3/4-x,1/4-z
3 1/2+x,1/2-y,-z
4 z,x,y
5 -x,1/2-y,z
6 3/4-y,1/4-x,1/4+z
7 1/4+x,3/4-z,1/4-y
8 3/4-y,3/4+x,1/4-z
9 1/2-x,y,-z
10 -z,1/2-x,y
11 1/4+y,1/4+x,1/4+z
12 3/4-x,3/4+z,1/4-y
13 1/2+z,1/2-x,-y
14 3/4+x,3/4+z,3/4+y
15 1/2-z,x,-y
16 1/4-x,3/4-z,3/4+y
17 y,z,x
18 1/4+z,3/4-y,1/4-x
19 1/4-z,3/4-y,3/4+x
20 y,-z,1/2-x
21 1/4+z,1/4+y,1/4+x
22 -y,1/2+z,1/2-x
23 -y,1/2-z,x
24 3/4-z,3/4+y,1/4-x
25 1/2+x,1/2+y,1/2+z
26 3/4+y,1/4-x,3/4-z
27 x,-y,1/2-z
28 1/2+z,1/2+x,1/2+y
29 1/2-x,-y,1/2+z
30 1/4-y,3/4-x,3/4+z
31 3/4+x,1/4-z,3/4-y
32 1/4-y,1/4+x,3/4-z
33 -x,1/2+y,1/2-z
34 1/2-z,-x,1/2+y
35 3/4+y,3/4+x,3/4+z
36 1/4-x,1/4+z,3/4-y
37 z,-x,1/2-y
38 1/4+x,1/4+z,1/4+y
39 -z,1/2+x,1/2-y
40 3/4-x,1/4-z,1/4+y
41 1/2+y,1/2+z,1/2+x
42 3/4+z,1/4-y,3/4-x
43 3/4-z,1/4-y,1/4+x
44 1/2+y,1/2-z,-x
45 3/4+z,3/4+y,3/4+x
46 1/2-y,z,-x
47 1/2-y,-z,1/2+x
48 1/4-z,1/4+y,3/4-x
_cell_length_a 20.064(2)
_cell_length_b 20.064(2)
_cell_length_c 20.064(2)
_cell_angle_alpha 90
_cell_angle_beta 90
_cell_angle_gamma 90
_cell_formula_units_Z 16
loop_
_atom_type_symbol
_atom_type_radius_bond
C 0.68
H 0.23
O 0.68
loop_
_atom_site_label
_atom_site_type_symbol
_atom_site_fract_x
_atom_site_fract_y
_atom_site_fract_z
O1 O 0.6252(1) 0.4312(1) 0.9683(1)
C1 C 0.5686(1) 0.3946(1) 0.9884(1)
C2 C 0.5906(1) 0.3328(1) 1.0248(1)
C3 C 0.6256(1) 0.3474(1) 1.0890(1)
C4 C 0.6942(1) 0.3566(1) 1.0923(1)
C5 C 0.7256(1) 0.3706(1) 1.1513(1)
C6 C 0.6904(1) 0.3761(1) 1.2088(1)
C7 C 0.6235(2) 0.3673(1) 1.2070(1)
C8 C 0.5911(1) 0.3533(1) 1.1477(1)
H1 H 0.5412(1) 0.4212(1) 1.0173(1)
H2 H 0.6205(1) 0.3084(1) 0.9965(1)
H3 H 0.5525(1) 0.3051(1) 1.0332(1)
H4 H 0.7197(1) 0.3525(1) 1.0520(1)
H5 H 0.7728(1) 0.3782(1) 1.1521(1)
H6 H 0.7124(1) 0.3841(1) 1.2506(1)
H7 H 0.5975(2) 0.3722(1) 1.2469(1)
H8 H 0.5437(1) 0.3468(1) 1.1473(1)
O1GA O 0.5317(1) 0.3748(1) 0.9312(1)
C1GA C 0.5116(1) 0.4314(1) 0.8946(1)
O1U O 0.5688(1) 0.4683(1) 0.8748(1)
C1U C 0.6054(1) 0.4884(1) 0.9314(1)
C2U C 0.6672(1) 0.5248(1) 0.9094(1)
C3U C 0.6526(1) 0.5890(1) 0.8744(1)
C4U C 0.6434(1) 0.5923(1) 0.8058(1)
C5U C 0.6294(1) 0.6513(1) 0.7744(1)
C6U C 0.6239(1) 0.7088(1) 0.8096(1)
C7U C 0.6327(2) 0.7070(1) 0.8765(1)
C8U C 0.6467(1) 0.6477(1) 0.9089(1)
H8U H 0.6532(1) 0.6473(1) 0.9563(1)
H7U H 0.6278(2) 0.7469(1) 0.9025(1)
H6U H 0.6159(1) 0.7506(1) 0.7876(1)
H5U H 0.6218(1) 0.6521(1) 0.7272(1)
H4U H 0.6475(1) 0.5520(1) 0.7803(1)
H2U H 0.6916(1) 0.4965(1) 0.8795(1)
H3U H 0.6949(1) 0.5332(1) 0.9475(1)
H1U H 0.5788(1) 0.5173(1) 0.9588(1)
C2GA C 0.4752(1) 0.4094(1) 0.8328(1)
C3GA C 0.4110(1) 0.3744(1) 0.8474(1)
C4GA C 0.4077(1) 0.3058(1) 0.8566(1)
C5GA C 0.3487(1) 0.2744(1) 0.8706(1)
C6GA C 0.2912(1) 0.3096(1) 0.8761(1)
C7GA C 0.2930(2) 0.3765(1) 0.8673(1)
C8GA C 0.3523(1) 0.4089(1) 0.8533(1)
H8GA H 0.3527(1) 0.4563(1) 0.8468(1)
H7GA H 0.2531(2) 0.4025(1) 0.8722(1)
H6GA H 0.2494(1) 0.2876(1) 0.8841(1)
H5GA H 0.3479(1) 0.2272(1) 0.8782(1)
H4GA H 0.4480(1) 0.2803(1) 0.8525(1)
H2GA H 0.5035(1) 0.3795(1) 0.8084(1)
H3GA H 0.4668(1) 0.4475(1) 0.8051(1)
H1GA H 0.4827(1) 0.4588(1) 0.9212(1)
#END

data_CSD_CIF_JAYCUK
_audit_creation_date 2017-06-14
_audit_creation_method CSD-ConQuest-V1
_database_code_CSD JAYCUK
_database_code_depnum_ccdc_archive 'CCDC 1527435'
_chemical_formula_sum 'C33 H21 F15 Ir1 N3 S3'
_chemical_formula_moiety
;
C33 H21 F15 Ir1 N3 S3
;
_journal_coden_Cambridge 9
_journal_volume 56
_journal_year 2017
_journal_page_first 7533
_journal_name_full 'Inorg.Chem. '
loop_
_publ_author_name
"A.K.Pal"
"A.F.Henwood"
"D.B.Cordes"
"A.M.Z.Slawin"
"I.D.W.Samuel"
"E.Zysman-Colman"
_chemical_name_systematic
;
tris(5-(pentafluorosulfanyl)-2-(pyridin-2-yl)phenyl)-iridium(iii)
;
_cell_volume  13727.630
_exptl_crystal_colour 'yellow'
_exptl_crystal_density_diffrn 1.999
_exptl_crystal_description 'prism'
_exptl_crystal_preparation 'dichloromethane/diethyl ether'
_diffrn_ambient_temperature 173
#These two values have been output from a single CSD field.
_refine_ls_R_factor_gt 0.015
_refine_ls_wR_factor_gt 0.015
_symmetry_cell_setting cubic
_symmetry_space_group_name_H-M 'I -4 3 d'
_symmetry_Int_Tables_number 220
loop_
_symmetry_equiv_pos_site_id
_symmetry_equiv_pos_as_xyz
1 x,y,z
2 y,z,x
3 z,x,y
4 3/4+y,1/4-x,3/4-z
5 3/4+z,1/4-y,3/4-x
6 3/4+x,1/4-z,3/4-y
7 -x,1/2-y,z
8 1/2-z,x,-y
9 1/2-x,y,-z
10 -y,1/2-z,x
11 -z,1/2-x,y
12 1/4-y,1/4+x,3/4-z
13 1/4-z,1/4+y,3/4-x
14 1/4-x,1/4+z,3/4-y
15 1/2-y,z,-x
16 3/4+z,3/4+y,3/4+x
17 3/4+x,3/4+z,3/4+y
18 3/4+y,3/4+x,3/4+z
19 1/2+y,1/2-z,-x
20 3/4-y,1/4-x,1/4+z
21 3/4-z,1/4-y,1/4+x
22 3/4-x,1/4-z,1/4+y
23 1/2+x,1/2-y,-z
24 1/2+z,1/2-x,-y
25 1/2+x,1/2+y,1/2+z
26 1/2+y,1/2+z,1/2+x
27 1/2+z,1/2+x,1/2+y
28 1/4+y,3/4-x,1/4-z
29 1/4+z,3/4-y,1/4-x
30 1/4+x,3/4-z,1/4-y
31 1/2-x,-y,1/2+z
32 -z,1/2+x,1/2-y
33 -x,1/2+y,1/2-z
34 1/2-y,-z,1/2+x
35 1/2-z,-x,1/2+y
36 3/4-y,3/4+x,1/4-z
37 3/4-z,3/4+y,1/4-x
38 3/4-x,3/4+z,1/4-y
39 -y,1/2+z,1/2-x
40 1/4+z,1/4+y,1/4+x
41 1/4+x,1/4+z,1/4+y
42 1/4+y,1/4+x,1/4+z
43 y,-z,1/2-x
44 1/4-y,3/4-x,3/4+z
45 1/4-z,3/4-y,3/4+x
46 1/4-x,3/4-z,3/4+y
47 x,-y,1/2-z
48 z,-x,1/2-y
_cell_length_a 23.9441(13)
_cell_length_b 23.9441(13)
_cell_length_c 23.9441(13)
_cell_angle_alpha 90
_cell_angle_beta 90
_cell_angle_gamma 90
_cell_formula_units_Z 16
loop_
_atom_type_symbol
_atom_type_radius_bond
C 0.68
H 0.23
F 0.64
Ir 1.41
N 0.68
S 1.02
loop_
_atom_site_label
_atom_site_type_symbol
_atom_site_fract_x
_atom_site_fract_y
_atom_site_fract_z
Ir1 Ir 0.58053(2) 0.58053(2) 0.58053(2)
S1 S 0.51088(5) 0.35095(5) 0.54305(5)
F1 F 0.48664(12) 0.38931(11) 0.49461(13)
F2 F 0.46787(11) 0.37817(11) 0.58563(14)
F3 F 0.53107(12) 0.30932(10) 0.58939(13)
F4 F 0.54975(13) 0.32003(11) 0.49857(13)
F5 F 0.46360(13) 0.30719(11) 0.52785(15)
N1 N 0.66945(12) 0.57608(13) 0.57800(13)
C1 C 0.69027(16) 0.52297(17) 0.57727(18)
C2 C 0.74781(19) 0.5145(2) 0.5753(2)
H1 H 0.76240 0.47760 0.57380
C3 C 0.78334(19) 0.5595(2) 0.5755(3)
H2 H 0.82260 0.55390 0.57510
C4 C 0.7622(2) 0.6126(2) 0.5764(2)
H3 H 0.78640 0.64400 0.57620
C5 C 0.70517(18) 0.61961(19) 0.5775(2)
H4 H 0.69050 0.65650 0.57790
C6 C 0.64760(17) 0.47903(17) 0.57576(18)
C7 C 0.59168(15) 0.49743(16) 0.57425(16)
C8 C 0.55064(17) 0.45674(16) 0.56535(16)
H5 H 0.51250 0.46750 0.56340
C9 C 0.56499(18) 0.40095(18) 0.55940(17)
C10 C 0.61954(19) 0.38299(18) 0.56530(19)
H6 H 0.62850 0.34440 0.56400
C11 C 0.66070(18) 0.42248(19) 0.57314(19)
H7 H 0.69850 0.41090 0.57680
S1A S 0.35095(5) 0.54305(5) 0.51088(5)
F1A F 0.38931(12) 0.49461(11) 0.48664(13)
F2A F 0.37817(11) 0.58563(11) 0.46787(14)
F3A F 0.30932(12) 0.58939(10) 0.53107(13)
F4A F 0.32003(13) 0.49857(11) 0.54975(13)
F5A F 0.30719(13) 0.52785(11) 0.46360(15)
N1A N 0.57608(12) 0.57800(13) 0.66945(13)
C1A C 0.52297(16) 0.57727(17) 0.69027(18)
C2A C 0.51450(19) 0.5753(2) 0.74781(20)
H1A H 0.47760 0.57380 0.76240
C3A C 0.55950(19) 0.5755(2) 0.78334(30)
H2A H 0.55390 0.57510 0.82260
C4A C 0.6126(2) 0.5764(2) 0.7622(2)
H3A H 0.64400 0.57620 0.78640
C5A C 0.61961(18) 0.57750(19) 0.70517(20)
H4A H 0.65650 0.57790 0.69050
C6A C 0.47903(17) 0.57576(17) 0.64760(18)
C7A C 0.49743(15) 0.57425(16) 0.59168(16)
C8A C 0.45674(17) 0.56535(16) 0.55064(16)
H5A H 0.46750 0.56340 0.51250
C9A C 0.40095(18) 0.55940(18) 0.56499(17)
C10A C 0.38299(19) 0.56530(18) 0.61954(19)
H6A H 0.34440 0.56400 0.62850
C11A C 0.42248(18) 0.57314(19) 0.66070(19)
H7A H 0.41090 0.57680 0.69850
S1B S 0.54305(5) 0.51088(5) 0.35095(5)
F1B F 0.49461(12) 0.48664(11) 0.38931(13)
F2B F 0.58563(11) 0.46787(11) 0.37817(14)
F3B F 0.58939(12) 0.53107(10) 0.30932(13)
F4B F 0.49857(13) 0.54975(11) 0.32003(13)
F5B F 0.52785(13) 0.46360(11) 0.30719(15)
N1B N 0.57800(12) 0.66945(13) 0.57608(13)
C1B C 0.57727(16) 0.69027(17) 0.52297(18)
C2B C 0.57530(19) 0.74781(20) 0.5145(2)
H1B H 0.57380 0.76240 0.47760
C3B C 0.57550(19) 0.78334(20) 0.5595(3)
H2B H 0.57510 0.82260 0.55390
C4B C 0.5764(2) 0.7622(2) 0.6126(2)
H3B H 0.57620 0.78640 0.64400
C5B C 0.57750(18) 0.70517(19) 0.61961(20)
H4B H 0.57790 0.69050 0.65650
C6B C 0.57576(17) 0.64760(17) 0.47903(18)
C7B C 0.57425(15) 0.59168(16) 0.49743(16)
C8B C 0.56535(17) 0.55064(16) 0.45674(16)
H5B H 0.56340 0.51250 0.46750
C9B C 0.55940(18) 0.56499(18) 0.40095(17)
C10B C 0.56530(19) 0.61954(18) 0.38299(19)
H6B H 0.56400 0.62850 0.34440
C11B C 0.57314(18) 0.66070(19) 0.42248(19)
H7B H 0.57680 0.69850 0.41090
#END

data_CSD_CIF_JEXRIO
_audit_creation_date 2007-04-27
_audit_creation_method CSD-ConQuest-V1
_database_code_CSD JEXRIO
_database_code_depnum_ccdc_archive 'CCDC 604859'
_chemical_formula_sum 'C64 H80 N12 O2 Yb4'
_chemical_formula_moiety
;
C56 H64 N12 Yb4,2(C4 H8 O1)
;
_journal_coden_Cambridge 9
_journal_volume 46
_journal_year 2007
_journal_page_first 321
_journal_name_full 'Inorg.Chem. '
loop_
_publ_author_name
"Jie Zhang"
"Ruifang Cai"
"Zhenxia Chen"
"Xigeng Zhou"
_chemical_name_systematic
;
tetrakis((\m~2~-1,3,5-triazolyl)-bis(\h^5^-methylcyclopentadienyl)-ytterbium) 
tetrahydrofuran solvate
;
_cell_volume  21547.613
_exptl_crystal_colour 'orange'
_exptl_crystal_density_diffrn 1.611
_diffrn_ambient_temperature 293
#These two values have been output from a single CSD field.
_refine_ls_R_factor_gt 0.0473
_refine_ls_wR_factor_gt 0.0473
_symmetry_cell_setting cubic
_symmetry_space_group_name_H-M 'I -4 3 d'
_symmetry_Int_Tables_number 220
loop_
_symmetry_equiv_pos_site_id
_symmetry_equiv_pos_as_xyz
1 x,y,z
2 1/2-x,-y,1/2+z
3 -x,1/2+y,1/2-z
4 1/2+x,1/2-y,-z
5 z,x,y
6 1/2+z,1/2-x,-y
7 1/2-z,-x,1/2+y
8 -z,1/2+x,1/2-y
9 y,z,x
10 -y,1/2+z,1/2-x
11 1/2+y,1/2-z,-x
12 1/2-y,-z,1/2+x
13 1/4+y,1/4+x,1/4+z
14 1/4-y,3/4-x,3/4+z
15 3/4+y,1/4-x,3/4-z
16 3/4-y,3/4+x,1/4-z
17 1/4+x,1/4+z,1/4+y
18 3/4-x,3/4+z,1/4-y
19 1/4-x,3/4-z,3/4+y
20 3/4+x,1/4-z,3/4-y
21 1/4+z,1/4+y,1/4+x
22 3/4+z,1/4-y,3/4-x
23 3/4-z,3/4+y,1/4-x
24 1/4-z,3/4-y,3/4+x
25 1/2+x,1/2+y,1/2+z
26 -x,1/2-y,z
27 1/2-x,y,-z
28 x,-y,1/2-z
29 1/2+z,1/2+x,1/2+y
30 z,-x,1/2-y
31 -z,1/2-x,y
32 1/2-z,x,-y
33 1/2+y,1/2+z,1/2+x
34 1/2-y,z,-x
35 y,-z,1/2-x
36 -y,1/2-z,x
37 3/4+y,3/4+x,3/4+z
38 3/4-y,1/4-x,1/4+z
39 1/4+y,3/4-x,1/4-z
40 1/4-y,1/4+x,3/4-z
41 3/4+x,3/4+z,3/4+y
42 1/4-x,1/4+z,3/4-y
43 3/4-x,1/4-z,1/4+y
44 1/4+x,3/4-z,1/4-y
45 3/4+z,3/4+y,3/4+x
46 1/4+z,3/4-y,1/4-x
47 1/4-z,1/4+y,3/4-x
48 3/4-z,1/4-y,1/4+x
_cell_length_a 27.827(3)
_cell_length_b 27.827(3)
_cell_length_c 27.827(3)
_cell_angle_alpha 90
_cell_angle_beta 90
_cell_angle_gamma 90
_cell_formula_units_Z 12
loop_
_atom_type_symbol
_atom_type_radius_bond
C 0.68
H 0.23
N 0.68
O 0.68
Yb 1.94
loop_
_atom_site_label
_atom_site_type_symbol
_atom_site_fract_x
_atom_site_fract_y
_atom_site_fract_z
Yb1 Yb 0.07726(2) 0.09943(2) 0.39311(2)
N1 N 0.1102(4) 0.1781(4) 0.3787(4)
N2 N 0.0081(4) 0.1393(4) 0.3734(4)
N3 N -0.0082(3) 0.0942(4) 0.3857(4)
C1 C 0.0708(9) 0.0614(10) 0.3080(7)
C2 C 0.1127(15) 0.0879(8) 0.3078(9)
H1 H 0.11980 0.11400 0.28530
C3 C 0.1442(9) 0.0690(9) 0.3393(10)
H2 H 0.17840 0.07730 0.34190
C4 C 0.1235(11) 0.0292(8) 0.3558(10)
H3 H 0.14030 0.00450 0.37450
C5 C 0.0772(10) 0.0239(7) 0.3376(9)
H4 H 0.05650 -0.00440 0.34060
C6 C 0.0292(9) 0.0724(10) 0.2751(8)
H5 H 0.03300 0.05490 0.24560
H6 H 0.02850 0.10620 0.26840
H7 H -0.00030 0.06300 0.29040
C7 C 0.1302(6) 0.085(1) 0.4683(7)
C8 C 0.0992(10) 0.0497(6) 0.4694(7)
H8 H 0.10740 0.01540 0.46970
C9 C 0.0569(8) 0.0677(8) 0.4790(6)
H9 H 0.02830 0.04910 0.48770
C10 C 0.0618(8) 0.1142(9) 0.4839(5)
H10 H 0.03740 0.13600 0.49720
C11 C 0.1071(10) 0.1249(6) 0.4773(6)
H11 H 0.12200 0.15580 0.48510
C12 C 0.1854(7) 0.0810(19) 0.4574(16)
H12 H 0.20260 0.07660 0.48700
H13 H 0.19620 0.10980 0.44190
H14 H 0.19100 0.05400 0.43670
C13 C 0.0863(4) 0.2194(4) 0.3853(4)
H15 H 0.05440 0.22030 0.39550
C14 C 0.1539(4) 0.1955(5) 0.3650(4)
H16 H 0.17970 0.17590 0.35700
C15 C 0.0354(7) 0.2773(9) 0.4884(7)
H17 H 0.03500 0.31100 0.47950
H18 H 0.06750 0.26450 0.48400
C16 C 0.0179(11) 0.2700(8) 0.5390(7)
H19 H 0.04470 0.26210 0.55980
H20 H 0.00310 0.29930 0.55080
O1 O 0.00000 0.25000 0.4617(6)
Yb1MA Yb 0.15057(2) 0.32726(2) 0.35689(2)
Yb1Y Yb -0.07726(2) 0.40057(2) 0.39311(2)
Yb1N Yb -0.15057(2) 0.17274(2) 0.35689(2)
N1MA N 0.0719(4) 0.3602(4) 0.3713(4)
N1Y N -0.1102(4) 0.3219(4) 0.3787(4)
N1N N -0.0719(4) 0.1398(4) 0.3713(4)
N2MA N 0.1107(4) 0.2581(4) 0.3766(4)
N2Y N -0.0081(4) 0.3607(4) 0.3734(4)
N2N N -0.1107(4) 0.2419(4) 0.3766(4)
N3N N -0.1558(3) 0.2582(4) 0.3643(4)
N3Y N 0.0082(3) 0.4058(4) 0.3857(4)
N3MA N 0.1558(3) 0.2418(4) 0.3643(4)
C1N C -0.1886(9) 0.1792(10) 0.4420(7)
C1Y C -0.0708(9) 0.4386(10) 0.3080(7)
C1MA C 0.1886(9) 0.3208(10) 0.4420(7)
C2N C -0.1621(15) 0.1373(8) 0.4422(9)
C2Y C -0.1127(15) 0.4121(8) 0.3078(9)
C2MA C 0.1621(15) 0.3627(8) 0.4422(9)
H1N H -0.13600 0.13020 0.46470
H1Y H -0.11980 0.38600 0.28530
H1MA H 0.13600 0.36980 0.46470
C3N C -0.1810(9) 0.1058(9) 0.4107(10)
C3Y C -0.1442(9) 0.4310(9) 0.3393(10)
C3MA C 0.1810(9) 0.3942(9) 0.4107(10)
H2N H -0.17270 0.07160 0.40810
H2Y H -0.17840 0.42270 0.34190
H2MA H 0.17270 0.42840 0.40810
C4N C -0.2208(11) 0.1265(8) 0.3942(10)
C4Y C -0.1235(11) 0.4708(8) 0.3558(10)
C4MA C 0.2208(11) 0.3735(8) 0.3942(10)
H3N H -0.24550 0.10970 0.37550
H3Y H -0.14030 0.49550 0.37450
H3MA H 0.24550 0.39030 0.37550
C5N C -0.2261(10) 0.1728(7) 0.4124(9)
C5Y C -0.0772(10) 0.4761(7) 0.3376(9)
C5MA C 0.2261(10) 0.3272(7) 0.4124(9)
H4N H -0.25440 0.19350 0.40940
H4Y H -0.05650 0.50440 0.34060
H4MA H 0.25440 0.30650 0.40940
C6N C -0.1776(9) 0.2208(10) 0.4749(8)
C6Y C -0.0292(9) 0.4276(10) 0.2751(8)
C6MA C 0.1776(9) 0.2792(10) 0.4749(8)
H5N H -0.19510 0.21700 0.50440
H5Y H -0.03300 0.44510 0.24560
H5MA H 0.19510 0.28300 0.50440
H6N H -0.14380 0.22150 0.48160
H6Y H -0.02850 0.39380 0.26840
H6MA H 0.14380 0.27850 0.48160
H7N H -0.18700 0.25030 0.45960
H7Y H 0.00030 0.43700 0.29040
H7MA H 0.18700 0.24970 0.45960
C7N C -0.1650(6) 0.1198(10) 0.2817(7)
C7Y C -0.1302(6) 0.415(1) 0.4683(7)
C7MA C 0.1650(6) 0.3802(10) 0.2817(7)
C8N C -0.2003(10) 0.1508(6) 0.2806(7)
C8Y C -0.0992(10) 0.4503(6) 0.4694(7)
C8MA C 0.2003(10) 0.3492(6) 0.2806(7)
H8N H -0.23460 0.14260 0.28030
H8Y H -0.10740 0.48460 0.46970
H8MA H 0.23460 0.35740 0.28030
C9N C -0.1823(8) 0.1931(8) 0.2710(6)
C9Y C -0.0569(8) 0.4323(8) 0.4790(6)
C9MA C 0.1823(8) 0.3069(8) 0.2710(6)
H9N H -0.20090 0.22170 0.26230
H9Y H -0.02830 0.45090 0.48770
H9MA H 0.20090 0.27830 0.26230
C10N C -0.1358(8) 0.1882(9) 0.2661(5)
C10Y C -0.0618(8) 0.3858(9) 0.4839(5)
C10MA C 0.1358(8) 0.3118(9) 0.2661(5)
H10N H -0.11400 0.21260 0.25280
H10Y H -0.03740 0.36400 0.49720
H10MA H 0.11400 0.28740 0.25280
C11N C -0.1251(10) 0.1429(6) 0.2727(6)
C11Y C -0.1071(10) 0.3751(6) 0.4773(6)
C11MA C 0.1251(10) 0.3571(6) 0.2727(6)
H11N H -0.09420 0.12800 0.26490
H11Y H -0.12200 0.34420 0.48510
H11MA H 0.09420 0.37200 0.26490
C12N C -0.1690(7) 0.0646(19) 0.2926(16)
C12Y C -0.1854(7) 0.4190(19) 0.4574(16)
C12MA C 0.1690(7) 0.4354(19) 0.2926(16)
H12N H -0.17340 0.04740 0.26300
H12Y H -0.20260 0.42340 0.48700
H12MA H 0.17340 0.45260 0.26300
H13N H -0.14020 0.05380 0.30810
H13Y H -0.19620 0.39020 0.44190
H13MA H 0.14020 0.44620 0.30810
H14N H -0.19600 0.05900 0.31330
H14Y H -0.19100 0.44600 0.43670
H14MA H 0.19600 0.44100 0.31330
C13MA C 0.0306(4) 0.3363(4) 0.3647(4)
C13Y C -0.0863(4) 0.2806(4) 0.3853(4)
C13N C -0.0306(4) 0.1637(4) 0.3647(4)
H15N H -0.02970 0.19560 0.35450
H15Y H -0.05440 0.27970 0.39550
H15MA H 0.02970 0.30440 0.35450
C14N C -0.0545(4) 0.0961(5) 0.3850(4)
C14Y C -0.1539(4) 0.3045(5) 0.3650(4)
C14MA C 0.0545(4) 0.4039(5) 0.3850(4)
H16N H -0.07410 0.07030 0.39300
H16Y H -0.17970 0.32410 0.35700
H16MA H 0.07410 0.42970 0.39300
C15Y C -0.0354(7) 0.2227(9) 0.4884(7)
H17Y H -0.03500 0.18900 0.47950
H18Y H -0.06750 0.23550 0.48400
C16Y C -0.0179(11) 0.2300(8) 0.5390(7)
H19Y H -0.04470 0.23790 0.55980
H20Y H -0.00310 0.20070 0.55080
#END

data_CSD_CIF_KOLGAW
_audit_creation_date 2019-06-11
_audit_creation_method CSD-ConQuest-V1
_database_code_CSD KOLGAW
_database_code_depnum_ccdc_archive 'CCDC 1891282'
_chemical_formula_sum 'C44 H40 Cl4 Co4 N8 O10'
_chemical_formula_moiety
;
C44 H36 Cl4 Co4 N8 O8,2(H2 O1)
;
_journal_coden_Cambridge 4
_journal_volume 141
_journal_year 2019
_journal_page_first 8846
_journal_name_full 'J.Am.Chem.Soc. '
loop_
_publ_author_name
"Fangyuan Song"
"K.Al-Ameed"
"Mauro Schilling"
"T.Fox"
"S.Luber"
"G.R.Patzke"
_chemical_name_systematic
;
tetrakis(\m-hydrogen 
bis(pyridin-2-yl)methanediolato)-tetrachloro-tetra-cobalt dihydrate
;
_cell_volume  13726.770
_exptl_crystal_colour 'pinkish violet'
_exptl_crystal_density_diffrn 1.769
_exptl_crystal_description 'hexagonal'
_diffrn_ambient_temperature 183.1
#These two values have been output from a single CSD field.
_refine_ls_R_factor_gt 0.0281
_refine_ls_wR_factor_gt 0.0281
_symmetry_cell_setting cubic
_symmetry_space_group_name_H-M 'I -4 3 d'
_symmetry_Int_Tables_number 220
loop_
_symmetry_equiv_pos_site_id
_symmetry_equiv_pos_as_xyz
1 x,y,z
2 1/2-x,-y,1/2+z
3 -x,1/2+y,1/2-z
4 1/2+x,1/2-y,-z
5 z,x,y
6 1/2+z,1/2-x,-y
7 1/2-z,-x,1/2+y
8 -z,1/2+x,1/2-y
9 y,z,x
10 -y,1/2+z,1/2-x
11 1/2+y,1/2-z,-x
12 1/2-y,-z,1/2+x
13 1/4+y,1/4+x,1/4+z
14 1/4-y,3/4-x,3/4+z
15 3/4+y,1/4-x,3/4-z
16 3/4-y,3/4+x,1/4-z
17 1/4+x,1/4+z,1/4+y
18 3/4-x,3/4+z,1/4-y
19 1/4-x,3/4-z,3/4+y
20 3/4+x,1/4-z,3/4-y
21 1/4+z,1/4+y,1/4+x
22 3/4+z,1/4-y,3/4-x
23 3/4-z,3/4+y,1/4-x
24 1/4-z,3/4-y,3/4+x
25 1/2+x,1/2+y,1/2+z
26 -x,1/2-y,z
27 1/2-x,y,-z
28 x,-y,1/2-z
29 1/2+z,1/2+x,1/2+y
30 z,-x,1/2-y
31 -z,1/2-x,y
32 1/2-z,x,-y
33 1/2+y,1/2+z,1/2+x
34 1/2-y,z,-x
35 y,-z,1/2-x
36 -y,1/2-z,x
37 3/4+y,3/4+x,3/4+z
38 3/4-y,1/4-x,1/4+z
39 1/4+y,3/4-x,1/4-z
40 1/4-y,1/4+x,3/4-z
41 3/4+x,3/4+z,3/4+y
42 1/4-x,1/4+z,3/4-y
43 3/4-x,1/4-z,1/4+y
44 1/4+x,3/4-z,1/4-y
45 3/4+z,3/4+y,3/4+x
46 1/4+z,3/4-y,1/4-x
47 1/4-z,1/4+y,3/4-x
48 3/4-z,1/4-y,1/4+x
_cell_length_a 23.9436(4)
_cell_length_b 23.9436(4)
_cell_length_c 23.9436(4)
_cell_angle_alpha 90
_cell_angle_beta 90
_cell_angle_gamma 90
_cell_formula_units_Z 12
loop_
_atom_type_symbol
_atom_type_radius_bond
C 0.68
H 0.23
Cl 0.99
Co 1.26
N 0.68
O 0.68
loop_
_atom_site_label
_atom_site_type_symbol
_atom_site_fract_x
_atom_site_fract_y
_atom_site_fract_z
Co1 Co 0.06773(2) 0.24581(2) 0.42267(2)
Cl1 Cl 0.15592(5) 0.29172(6) 0.41898(5)
O1 O 0.00891(10) 0.30614(9) 0.41475(9)
O2 O 0.04506(12) 0.39220(11) 0.44012(12)
N1 N 0.05868(12) 0.27622(13) 0.50639(13)
N2 N -0.09108(13) 0.33443(13) 0.44869(12)
C1 C 0.08034(18) 0.25404(18) 0.55326(16)
H1 H 0.10095 0.22024 0.55054
C2 C 0.0739(2) 0.27838(19) 0.60519(17)
H2 H 0.08930 0.26148 0.63760
C3 C 0.0445(2) 0.32776(19) 0.60888(17)
H3 H 0.03921 0.34537 0.64404
C4 C 0.02278(18) 0.35141(17) 0.56077(18)
H4 H 0.00286 0.38569 0.56240
C5 C 0.03052(16) 0.32435(15) 0.51028(15)
C6 C 0.00882(15) 0.34800(15) 0.45473(15)
C7 C -0.05048(17) 0.37072(16) 0.46010(15)
C8 C -0.06148(19) 0.42544(19) 0.47457(19)
H5 H -0.03183 0.45032 0.48329
C9 C -0.1166(2) 0.4436(2) 0.4762(2)
H6 H -0.12524 0.48096 0.48626
C10 C -0.15795(18) 0.40679(19) 0.46313(19)
H7 H -0.19586 0.41851 0.46305
C11 C -0.14430(17) 0.35223(19) 0.44997(17)
H8 H -0.17339 0.32658 0.44158
H9 H 0.027(3) 0.408(3) 0.414(2)
O3 O 0.25000 0.2485(3) 0.50000
H10 H 0.27734 0.27548 0.52219
Co1N Co -0.00419(2) 0.18227(2) 0.32733(2)
Cl1N Cl 0.04172(5) 0.09408(6) 0.33102(5)
O1N O 0.05614(10) 0.24109(9) 0.33525(9)
O2N O 0.14220(12) 0.20494(11) 0.30988(12)
N1N N 0.02622(12) 0.19132(13) 0.24361(13)
N2N N 0.08443(13) 0.34108(13) 0.30131(12)
C1N C 0.00404(18) 0.16966(18) 0.19674(16)
H1N H -0.02976 0.14905 0.19946
C2N C 0.02838(20) 0.17610(19) 0.14481(17)
H2N H 0.01148 0.16070 0.11240
C3N C 0.07776(20) 0.20550(19) 0.14112(17)
H3N H 0.09537 0.21079 0.10596
C4N C 0.10141(18) 0.22722(17) 0.18923(18)
H4N H 0.13569 0.24714 0.18760
C5N C 0.07435(16) 0.21948(15) 0.23972(15)
C6N C 0.09800(15) 0.24118(15) 0.29527(15)
C7N C 0.12072(17) 0.30048(16) 0.28990(15)
C8N C 0.17544(19) 0.31148(19) 0.27543(19)
H5N H 0.20032 0.28183 0.26671
C9N C 0.1936(2) 0.3666(2) 0.2738(2)
H6N H 0.23096 0.37524 0.26374
C10N C 0.15679(18) 0.40795(19) 0.28687(19)
H7N H 0.16851 0.44586 0.28695
C11N C 0.10223(17) 0.39430(19) 0.30003(17)
H8N H 0.07658 0.42339 0.30842
H9N H 0.158(3) 0.223(3) 0.336(2)
Co1Y Co -0.06773(2) 0.25419(2) 0.42267(2)
Cl1Y Cl -0.15592(5) 0.20828(6) 0.41898(5)
O1Y O -0.00891(10) 0.19386(9) 0.41475(9)
O2Y O -0.04506(12) 0.10780(11) 0.44012(12)
N1Y N -0.05868(12) 0.22378(13) 0.50639(13)
N2Y N 0.09108(13) 0.16557(13) 0.44869(12)
C1Y C -0.08034(18) 0.24596(18) 0.55326(16)
H1Y H -0.10095 0.27976 0.55054
C2Y C -0.0739(2) 0.22162(19) 0.60519(17)
H2Y H -0.08930 0.23852 0.63760
C3Y C -0.0445(2) 0.17224(19) 0.60888(17)
H3Y H -0.03921 0.15463 0.64404
C4Y C -0.02278(18) 0.14859(17) 0.56077(18)
H4Y H -0.00286 0.11431 0.56240
C5Y C -0.03052(16) 0.17565(15) 0.51028(15)
C6Y C -0.00882(15) 0.15200(15) 0.45473(15)
C7Y C 0.05048(17) 0.12928(16) 0.46010(15)
C8Y C 0.06148(19) 0.07456(19) 0.47457(19)
H5Y H 0.03183 0.04968 0.48329
C9Y C 0.1166(2) 0.0564(2) 0.4762(2)
H6Y H 0.12524 0.01904 0.48626
C10Y C 0.15795(18) 0.09321(19) 0.46313(19)
H7Y H 0.19586 0.08149 0.46305
C11Y C 0.14430(17) 0.14777(19) 0.44997(17)
H8Y H 0.17339 0.17342 0.44158
H9Y H -0.027(3) 0.092(3) 0.414(2)
Co1MA Co 0.00419(2) 0.31773(2) 0.32733(2)
Cl1MA Cl -0.04172(5) 0.40592(6) 0.33102(5)
O1MA O -0.05614(10) 0.25891(9) 0.33525(9)
O2MA O -0.14220(12) 0.29506(11) 0.30988(12)
N1MA N -0.02622(12) 0.30868(13) 0.24361(13)
N2MA N -0.08443(13) 0.15892(13) 0.30131(12)
C1MA C -0.00404(18) 0.33034(18) 0.19674(16)
H1MA H 0.02976 0.35095 0.19946
C2MA C -0.02838(20) 0.32390(19) 0.14481(17)
H2MA H -0.01148 0.33930 0.11240
C3MA C -0.07776(20) 0.29450(19) 0.14112(17)
H3MA H -0.09537 0.28921 0.10596
C4MA C -0.10141(18) 0.27278(17) 0.18923(18)
H4MA H -0.13569 0.25286 0.18760
C5MA C -0.07435(16) 0.28052(15) 0.23972(15)
C6MA C -0.09800(15) 0.25882(15) 0.29527(15)
C7MA C -0.12072(17) 0.19952(16) 0.28990(15)
C8MA C -0.17544(19) 0.18852(19) 0.27543(19)
H5MA H -0.20032 0.21817 0.26671
C9MA C -0.1936(2) 0.1334(2) 0.2738(2)
H6MA H -0.23096 0.12476 0.26374
C10MA C -0.15679(18) 0.09205(19) 0.28687(19)
H7MA H -0.16851 0.05414 0.28695
C11MA C -0.10223(17) 0.10570(19) 0.30003(17)
H8MA H -0.07658 0.07661 0.30842
H9MA H -0.158(3) 0.277(3) 0.336(2)
H10Z H 0.22266 0.27548 0.47781
#END

data_CSD_CIF_KORBUO
_audit_creation_date 1992-10-01
_audit_creation_method CSD-ConQuest-V1
_database_code_CSD KORBUO
_database_code_depnum_ccdc_archive 'CCDC 1199414'
_database_code_depnum_ccdc_fiz 'CSD 55662'
_chemical_formula_sum 'C37 H31 Au3 Cl3 P3'
_chemical_formula_moiety
;
C37 H31 Au3 Cl3 P3
;
_journal_coden_Cambridge 48
_journal_volume 125
_journal_year 1992
_journal_page_first 367
_journal_name_full 'Chem.Ber. '
loop_
_publ_author_name
"A.Stutzer"
"P.Bissinger"
"H.Schmidbaur"
_chemical_name_systematic
;
(\m~3~-tris(Diphenylphosphino)methane)-tris(chloro-gold(i))
;
_chemical_melting_point 546.15
_cell_volume  14776.466
_exptl_crystal_colour 'white'
_exptl_crystal_density_diffrn 2.276
_exptl_special_details
;
Melts with decomposition.

;
_diffrn_ambient_temperature ?
_diffrn_special_details
;
The study was carried out at room temperature,in the range 283-303K

;
#These two values have been output from a single CSD field.
_refine_ls_R_factor_gt 0.046
_refine_ls_wR_factor_gt 0.046
_symmetry_cell_setting cubic
_symmetry_space_group_name_H-M 'I -4 3 d'
_symmetry_Int_Tables_number 220
loop_
_symmetry_equiv_pos_site_id
_symmetry_equiv_pos_as_xyz
1 x,y,z
2 1/2+x,1/2+y,1/2+z
3 z,x,y
4 y,z,x
5 1/2+z,1/2+x,1/2+y
6 1/2+y,1/2+z,1/2+x
7 1/2+x,1/2-y,-z
8 x,-y,1/2-z
9 1/2+z,1/2-x,-y
10 1/2+y,1/2-z,-x
11 z,-x,1/2-y
12 y,-z,1/2-x
13 -x,1/2+y,1/2-z
14 1/2-x,y,-z
15 -z,1/2+x,1/2-y
16 -y,1/2+z,1/2-x
17 1/2-z,x,-y
18 1/2-y,z,-x
19 1/2-x,-y,1/2+z
20 -x,1/2-y,z
21 1/2-z,-x,1/2+y
22 1/2-y,-z,1/2+x
23 -z,1/2-x,y
24 -y,1/2-z,x
25 1/4+y,1/4+x,1/4+z
26 3/4+y,3/4+x,3/4+z
27 1/4+x,1/4+z,1/4+y
28 1/4+z,1/4+y,1/4+x
29 3/4+x,3/4+z,3/4+y
30 3/4+z,3/4+y,3/4+x
31 3/4-y,3/4+x,1/4-z
32 1/4-y,1/4+x,3/4-z
33 3/4-x,3/4+z,1/4-y
34 3/4-z,3/4+y,1/4-x
35 1/4-x,1/4+z,3/4-y
36 1/4-z,1/4+y,3/4-x
37 3/4+y,1/4-x,3/4-z
38 1/4+y,3/4-x,1/4-z
39 3/4+x,1/4-z,3/4-y
40 3/4+z,1/4-y,3/4-x
41 1/4+x,3/4-z,1/4-y
42 1/4+z,3/4-y,1/4-x
43 1/4-y,3/4-x,3/4+z
44 3/4-y,1/4-x,1/4+z
45 1/4-x,3/4-z,3/4+y
46 1/4-z,3/4-y,3/4+x
47 3/4-x,1/4-z,1/4+y
48 3/4-z,1/4-y,1/4+x
_cell_length_a 24.539(2)
_cell_length_b 24.539(2)
_cell_length_c 24.539(2)
_cell_angle_alpha 90
_cell_angle_beta 90
_cell_angle_gamma 90
_cell_formula_units_Z 16
loop_
_atom_type_symbol
_atom_type_radius_bond
C 0.68
H 0.23
Au 1.50
Cl 0.99
P 1.05
loop_
_atom_site_label
_atom_site_type_symbol
_atom_site_fract_x
_atom_site_fract_y
_atom_site_fract_z
Au1 Au -0.40082(2) -0.64444(2) -0.03830(2)
P1 P -0.4756(1) -0.6016(2) -0.0066(1)
Cl1 Cl -0.3195(2) -0.6858(2) -0.0597(2)
C1 C -0.4719(6) -0.5281(6) -0.0281(6)
C2 C -0.5397(5) -0.6285(6) -0.0308(6)
C3 C -0.5399(7) -0.6762(6) -0.0631(7)
C4 C -0.5878(6) -0.6975(6) -0.0793(6)
C5 C -0.6361(8) -0.6741(7) -0.0634(8)
C6 C -0.6386(7) -0.6301(7) -0.0322(7)
C7 C -0.5887(6) -0.6071(6) -0.0131(6)
C8 C -0.4814(6) -0.6029(6) 0.0674(6)
C9 C -0.5134(5) -0.5685(6) 0.0961(6)
C10 C -0.5163(6) -0.5732(6) 0.1521(7)
C11 C -0.4894(7) -0.6141(7) 0.1791(6)
C12 C -0.4567(6) -0.6493(7) 0.1507(7)
C13 C -0.4521(5) -0.6438(6) 0.0929(6)
H1 H -0.50000 -0.50000 0.00000
H2 H -0.50662 -0.69351 -0.07462
H3 H -0.58735 -0.73053 -0.10232
H4 H -0.66921 -0.69215 -0.07689
H5 H -0.67453 -0.61358 -0.02452
H6 H -0.58902 -0.57601 0.01813
H7 H -0.53477 -0.54140 0.07621
H8 H -0.53716 -0.54613 0.17326
H9 H -0.49309 -0.61707 0.21843
H10 H -0.43666 -0.67815 0.17052
H11 H -0.42926 -0.66875 0.07077
Au1O Au -0.35556(2) -0.53830(2) -0.09918(2)
Au1T Au -0.46170(2) -0.59918(2) -0.14444(2)
P1O P -0.3984(1) -0.5066(2) -0.0244(1)
P1T P -0.4934(1) -0.5244(2) -0.1016(1)
Cl1O Cl -0.3142(2) -0.5597(2) -0.1805(2)
Cl1T Cl -0.4403(2) -0.6805(2) -0.1858(2)
C2O C -0.3715(5) -0.5308(6) 0.0397(6)
C8O C -0.3971(6) -0.4326(6) -0.0186(6)
C2T C -0.4692(5) -0.4603(6) -0.1285(6)
C8T C -0.5674(6) -0.5186(6) -0.1029(6)
C3O C -0.3238(7) -0.5631(6) 0.0399(7)
C7O C -0.3929(6) -0.5131(6) 0.0887(6)
C9O C -0.4315(5) -0.4039(6) 0.0134(6)
C13O C -0.3562(5) -0.4071(6) -0.0479(6)
C3T C -0.4369(7) -0.4601(6) -0.1762(7)
C7T C -0.4869(6) -0.4113(6) -0.1071(6)
C9T C -0.5961(5) -0.4866(6) -0.0685(6)
C13T C -0.5929(5) -0.5479(6) -0.1438(6)
C4O C -0.3025(6) -0.5793(6) 0.0878(6)
H2O H -0.30649 -0.57462 0.00662
C6O C -0.3699(7) -0.5322(7) 0.1386(7)
H6O H -0.42399 -0.48187 0.08902
C10O C -0.4268(6) -0.3479(6) 0.0163(7)
H7O H -0.45860 -0.42379 0.03477
C12O C -0.3507(6) -0.3493(7) -0.0433(7)
H11O H -0.33125 -0.42923 -0.07074
C4T C -0.4207(6) -0.4122(6) -0.1975(6)
H2T H -0.42538 -0.49338 -0.19351
C6T C -0.4678(7) -0.3614(7) -0.1301(7)
H6T H -0.51813 -0.41098 -0.07601
C10T C -0.6521(6) -0.4837(6) -0.0732(7)
H7T H -0.57621 -0.46523 -0.04140
C12T C -0.6507(6) -0.5433(7) -0.1493(7)
H11T H -0.57077 -0.57074 -0.16875
C5O C -0.3259(8) -0.5634(7) 0.1361(8)
H3O H -0.26947 -0.60232 0.08735
H5O H -0.38642 -0.52452 0.17453
C11O C -0.3859(7) -0.3209(7) -0.0106(6)
H8O H -0.45387 -0.32674 0.03716
H10O H -0.32185 -0.32948 -0.06334
C5T C -0.4366(8) -0.3639(7) -0.1741(8)
H3T H -0.39768 -0.41265 -0.23053
H5T H -0.47548 -0.32547 -0.11358
C11T C -0.6791(7) -0.5106(7) -0.1141(6)
H8T H -0.67326 -0.46284 -0.04613
H10T H -0.67052 -0.56334 -0.17815
H4O H -0.30785 -0.57689 0.16921
H9O H -0.38293 -0.28157 -0.00691
H4T H -0.42311 -0.33079 -0.19215
H9T H -0.71843 -0.50691 -0.11707
#END

data_CSD_CIF_KUSGEK
_audit_creation_date 1993-05-14
_audit_creation_method CSD-ConQuest-V1
_database_code_CSD KUSGEK
_chemical_formula_sum 'C16 H20 Mn4 N4 O16'
_chemical_formula_moiety
;
C12 H4 Mn4 O16,2(C2 H8 N2)
;
_journal_coden_Cambridge 4
_journal_volume 114
_journal_year 1992
_journal_page_first 8719
_journal_name_full 'J.Am.Chem.Soc. '
loop_
_publ_author_name
"S.B.Copp"
"S.Subramanian"
"M.J.Zaworotko"
_chemical_name_systematic
;
tetrakis((\m~3~-Hydroxo)-tricarbonyl-manganese) 1,2-diaminoethane clathrate
;
_cell_volume   8912.231
_exptl_crystal_density_diffrn 1.66
_diffrn_ambient_temperature ?
_diffrn_special_details
;
The study was carried out at room temperature,in the range 283-303K

;
#These two values have been output from a single CSD field.
_refine_ls_R_factor_gt 0.026
_refine_ls_wR_factor_gt 0.026
_symmetry_cell_setting cubic
_symmetry_space_group_name_H-M 'I -4 3 d'
_symmetry_Int_Tables_number 220
loop_
_symmetry_equiv_pos_site_id
_symmetry_equiv_pos_as_xyz
1 x,y,z
2 1/2+x,1/2+y,1/2+z
3 z,x,y
4 y,z,x
5 1/2+z,1/2+x,1/2+y
6 1/2+y,1/2+z,1/2+x
7 1/2+x,1/2-y,-z
8 x,-y,1/2-z
9 1/2+z,1/2-x,-y
10 1/2+y,1/2-z,-x
11 z,-x,1/2-y
12 y,-z,1/2-x
13 -x,1/2+y,1/2-z
14 1/2-x,y,-z
15 -z,1/2+x,1/2-y
16 -y,1/2+z,1/2-x
17 1/2-z,x,-y
18 1/2-y,z,-x
19 1/2-x,-y,1/2+z
20 -x,1/2-y,z
21 1/2-z,-x,1/2+y
22 1/2-y,-z,1/2+x
23 -z,1/2-x,y
24 -y,1/2-z,x
25 1/4+y,1/4+x,1/4+z
26 3/4+y,3/4+x,3/4+z
27 1/4+x,1/4+z,1/4+y
28 1/4+z,1/4+y,1/4+x
29 3/4+x,3/4+z,3/4+y
30 3/4+z,3/4+y,3/4+x
31 3/4-y,3/4+x,1/4-z
32 1/4-y,1/4+x,3/4-z
33 3/4-x,3/4+z,1/4-y
34 3/4-z,3/4+y,1/4-x
35 1/4-x,1/4+z,3/4-y
36 1/4-z,1/4+y,3/4-x
37 3/4+y,1/4-x,3/4-z
38 1/4+y,3/4-x,1/4-z
39 3/4+x,1/4-z,3/4-y
40 3/4+z,1/4-y,3/4-x
41 1/4+x,3/4-z,1/4-y
42 1/4+z,3/4-y,1/4-x
43 1/4-y,3/4-x,3/4+z
44 3/4-y,1/4-x,1/4+z
45 1/4-x,3/4-z,3/4+y
46 1/4-z,3/4-y,3/4+x
47 3/4-x,1/4-z,1/4+y
48 3/4-z,1/4-y,1/4+x
_cell_length_a 20.733(3)
_cell_length_b 20.733(3)
_cell_length_c 20.733(3)
_cell_angle_alpha 90
_cell_angle_beta 90
_cell_angle_gamma 90
_cell_formula_units_Z 12
loop_
_atom_type_symbol
_atom_type_radius_bond
C 0.68
H 0.23
Mn 1.35
N 0.68
O 0.68
loop_
_atom_site_label
_atom_site_type_symbol
_atom_site_fract_x
_atom_site_fract_y
_atom_site_fract_z
Mn1 Mn 0.17694(5) 0.42860(5) 0.02216(5)
O1 O 0.26728(20) 0.41775(21) 0.05841(22)
C1 C 0.0992(4) 0.4293(4) -0.0155(4)
O2 O 0.0481(3) 0.4313(3) -0.0364(3)
C2 C 0.1759(4) 0.5140(3) 0.0198(4)
O3 O 0.1736(3) 0.5700(3) 0.0164(3)
C3 C 0.1360(4) 0.4309(4) 0.0981(4)
O4 O 0.1081(3) 0.4314(3) 0.1461(3)
N1 N 0.2789(3) 0.5051(3) 0.1591(3)
C4 C 0.2771(4) 0.4768(4) 0.2225(4)
H1 H 0.277(3) 0.441(3) 0.091(3)
H2 H 0.31800 0.44500 0.22800
H3 H 0.23300 0.44800 0.22600
H4 H 0.24500 0.53800 0.15400
H5 H 0.32300 0.52600 0.15200
O1M O 0.23272(20) 0.41775(21) -0.05841(22)
O1SA O 0.19159(20) 0.33225(21) 0.01728(22)
Mn1M Mn 0.32306(5) 0.42860(5) -0.02216(5)
Mn1OA Mn 0.27216(5) 0.32140(5) 0.07306(5)
Mn1SA Mn 0.22784(5) 0.32140(5) -0.07306(5)
H1M H 0.223(3) 0.441(3) -0.091(3)
H1SA H 0.159(3) 0.309(3) 0.027(3)
O1OA O 0.30841(20) 0.33225(21) -0.01728(22)
C1M C 0.4008(4) 0.4293(4) 0.0155(4)
C2M C 0.3241(4) 0.5140(3) -0.0198(4)
C3M C 0.3640(4) 0.4309(4) -0.0981(4)
C1OA C 0.2345(4) 0.3207(4) 0.1508(4)
C2OA C 0.2698(4) 0.2360(3) 0.0741(4)
C3OA C 0.3481(4) 0.3191(4) 0.1140(4)
C1SA C 0.2655(4) 0.3207(4) -0.1508(4)
C2SA C 0.2302(4) 0.2360(3) -0.0741(4)
C3SA C 0.1519(4) 0.3191(4) -0.1140(4)
H1OA H 0.341(3) 0.309(3) -0.027(3)
O2M O 0.4519(3) 0.4313(3) 0.0364(3)
O3M O 0.3264(3) 0.5700(3) -0.0164(3)
O4M O 0.3919(3) 0.4314(3) -0.1461(3)
O2OA O 0.2136(3) 0.3187(3) 0.2019(3)
O3OA O 0.2664(3) 0.1800(3) 0.0764(3)
O4OA O 0.3961(3) 0.3186(3) 0.1419(3)
O2SA O 0.2864(3) 0.3187(3) -0.2019(3)
O3SA O 0.2336(3) 0.1800(3) -0.0764(3)
O4SA O 0.1039(3) 0.3186(3) -0.1419(3)
C4G C 0.2771(4) 0.5232(4) 0.2775(4)
N1G N 0.2789(3) 0.4949(3) 0.3409(3)
H2G H 0.31800 0.55500 0.27200
H3G H 0.23300 0.55200 0.27400
H4G H 0.24500 0.46200 0.34600
H5G H 0.32300 0.47400 0.34800
#END

data_CSD_CIF_KUSGEK10
_audit_creation_date 1996-04-18
_audit_creation_method CSD-ConQuest-V1
_database_code_CSD KUSGEK10
_chemical_formula_sum 'C16 H20 Mn4 N4 O16'
_chemical_formula_moiety
;
C12 H4 Mn4 O16,2(C2 H8 N2)
;
_journal_coden_Cambridge 186
_journal_year 1995
_journal_page_first 2233
_journal_name_full 'J.Chem.Soc.,Dalton Trans. '
loop_
_publ_author_name
"S.B.Copp"
"K.T.Holman"
"J.O.S.Sangster"
"S.Subramanian"
"M.J.Zaworotko"
_chemical_name_systematic
;
tetrakis((\m~3~-Hydroxo)-tricarbonyl-manganese(i)) 1,2-diaminoethane clathrate
;
_cell_volume   8912.231
_exptl_crystal_colour 'orange'
_exptl_crystal_density_diffrn 1.66
_exptl_special_details
;
Isostructural with 2-chloropyrazine analogue

;
_diffrn_ambient_temperature ?
_diffrn_special_details
;
The study was carried out at room temperature,in the range 283-303K

;
#These two values have been output from a single CSD field.
_refine_ls_R_factor_gt 0.026
_refine_ls_wR_factor_gt 0.026
_symmetry_cell_setting cubic
_symmetry_space_group_name_H-M 'I -4 3 d'
_symmetry_Int_Tables_number 220
loop_
_symmetry_equiv_pos_site_id
_symmetry_equiv_pos_as_xyz
1 x,y,z
2 1/4+y,3/4-x,1/4-z
3 1/2+x,1/2-y,-z
4 z,x,y
5 -x,1/2-y,z
6 3/4-y,1/4-x,1/4+z
7 1/4+x,3/4-z,1/4-y
8 3/4-y,3/4+x,1/4-z
9 1/2-x,y,-z
10 -z,1/2-x,y
11 1/4+y,1/4+x,1/4+z
12 3/4-x,3/4+z,1/4-y
13 1/2+z,1/2-x,-y
14 3/4+x,3/4+z,3/4+y
15 1/2-z,x,-y
16 1/4-x,3/4-z,3/4+y
17 y,z,x
18 1/4+z,3/4-y,1/4-x
19 1/4-z,3/4-y,3/4+x
20 y,-z,1/2-x
21 1/4+z,1/4+y,1/4+x
22 -y,1/2+z,1/2-x
23 -y,1/2-z,x
24 3/4-z,3/4+y,1/4-x
25 1/2+x,1/2+y,1/2+z
26 3/4+y,1/4-x,3/4-z
27 x,-y,1/2-z
28 1/2+z,1/2+x,1/2+y
29 1/2-x,-y,1/2+z
30 1/4-y,3/4-x,3/4+z
31 3/4+x,1/4-z,3/4-y
32 1/4-y,1/4+x,3/4-z
33 -x,1/2+y,1/2-z
34 1/2-z,-x,1/2+y
35 3/4+y,3/4+x,3/4+z
36 1/4-x,1/4+z,3/4-y
37 z,-x,1/2-y
38 1/4+x,1/4+z,1/4+y
39 -z,1/2+x,1/2-y
40 3/4-x,1/4-z,1/4+y
41 1/2+y,1/2+z,1/2+x
42 3/4+z,1/4-y,3/4-x
43 3/4-z,1/4-y,1/4+x
44 1/2+y,1/2-z,-x
45 3/4+z,3/4+y,3/4+x
46 1/2-y,z,-x
47 1/2-y,-z,1/2+x
48 1/4-z,1/4+y,3/4-x
_cell_length_a 20.733(3)
_cell_length_b 20.733(3)
_cell_length_c 20.733(3)
_cell_angle_alpha 90
_cell_angle_beta 90
_cell_angle_gamma 90
_cell_formula_units_Z 12
loop_
_atom_type_symbol
_atom_type_radius_bond
C 0.68
H 0.23
Mn 1.35
N 0.68
O 0.68
loop_
_atom_site_label
_atom_site_type_symbol
_atom_site_fract_x
_atom_site_fract_y
_atom_site_fract_z
Mn1 Mn 0.17694(5) 0.42860(5) 0.02216(5)
O1 O 0.26728(20) 0.41775(21) 0.05841(22)
C1 C 0.0992(4) 0.4293(4) -0.0155(4)
O2 O 0.0481(3) 0.4313(3) -0.0364(3)
C2 C 0.1759(4) 0.5140(3) 0.0198(4)
O3 O 0.1736(3) 0.5700(3) 0.0164(3)
C3 C 0.1360(4) 0.4309(4) 0.0981(4)
O4 O 0.1081(3) 0.4314(3) 0.1461(3)
N1 N 0.2789(3) 0.5051(3) 0.1591(3)
C4 C 0.2771(4) 0.4768(4) 0.2225(4)
H1 H 0.277(3) 0.441(3) 0.091(3)
H2 H 0.31800 0.44500 0.22800
H3 H 0.23300 0.44800 0.22600
H4 H 0.24500 0.53800 0.15400
H5 H 0.32300 0.52600 0.15200
O1H O 0.23272(20) 0.41775(21) -0.05841(22)
O1R O 0.19159(20) 0.33225(21) 0.01728(22)
Mn1H Mn 0.32306(5) 0.42860(5) -0.02216(5)
Mn1Q Mn 0.27216(5) 0.32140(5) 0.07306(5)
Mn1R Mn 0.22784(5) 0.32140(5) -0.07306(5)
H1H H 0.223(3) 0.441(3) -0.091(3)
H1R H 0.159(3) 0.309(3) 0.027(3)
O1Q O 0.30841(20) 0.33225(21) -0.01728(22)
C1H C 0.4008(4) 0.4293(4) 0.0155(4)
C2H C 0.3241(4) 0.5140(3) -0.0198(4)
C3H C 0.3640(4) 0.4309(4) -0.0981(4)
C1Q C 0.2345(4) 0.3207(4) 0.1508(4)
C2Q C 0.2698(4) 0.2360(3) 0.0741(4)
C3Q C 0.3481(4) 0.3191(4) 0.1140(4)
C1R C 0.2655(4) 0.3207(4) -0.1508(4)
C2R C 0.2302(4) 0.2360(3) -0.0741(4)
C3R C 0.1519(4) 0.3191(4) -0.1140(4)
H1Q H 0.341(3) 0.309(3) -0.027(3)
O2H O 0.4519(3) 0.4313(3) 0.0364(3)
O3H O 0.3264(3) 0.5700(3) -0.0164(3)
O4H O 0.3919(3) 0.4314(3) -0.1461(3)
O2Q O 0.2136(3) 0.3187(3) 0.2019(3)
O3Q O 0.2664(3) 0.1800(3) 0.0764(3)
O4Q O 0.3961(3) 0.3186(3) 0.1419(3)
O2R O 0.2864(3) 0.3187(3) -0.2019(3)
O3R O 0.2336(3) 0.1800(3) -0.0764(3)
O4R O 0.1039(3) 0.3186(3) -0.1419(3)
C4Z C 0.2771(4) 0.5232(4) 0.2775(4)
N1Z N 0.2789(3) 0.4949(3) 0.3409(3)
H2Z H 0.31800 0.55500 0.27200
H3Z H 0.23300 0.55200 0.27400
H4Z H 0.24500 0.46200 0.34600
H5Z H 0.32300 0.47400 0.34800
#END

data_CSD_CIF_LAFBOK
_audit_creation_date 2005-02-01
_audit_creation_method CSD-ConQuest-V1
_database_code_CSD LAFBOK
_database_code_depnum_ccdc_archive 'CCDC 220263'
_chemical_formula_sum 'C39 H36 Ir1 N3'
_chemical_formula_moiety
;
C39 H36 Ir1 N3
;
_journal_coden_Cambridge 1290
_journal_year 2004
_journal_page_first 3415
_journal_name_full 'Eur.J.Inorg.Chem. '
loop_
_publ_author_name
"Sungouk Jung"
"Youngjin Kang"
"Hyung-Sun Kim"
"Yun-Hi Kim"
"Chang-Lyoul Lee"
"Jang-Joo Kim"
"Sung-Koo Lee"
"Soon-Ki Kwon"
_chemical_name_systematic
;
fac-tris(2-(5-Methylpyrid-2-yl)-5-methylphenyl)-iridium(iii)
;
_cell_volume  12814.218
_exptl_crystal_colour 'yellow'
_exptl_crystal_density_diffrn 1.532
_exptl_special_details
;
luminescent

;
_exptl_crystal_description 'block'
_exptl_crystal_preparation 'toluene/benzene/hexane'
_diffrn_ambient_temperature 173
#These two values have been output from a single CSD field.
_refine_ls_R_factor_gt 0.0341
_refine_ls_wR_factor_gt 0.0341
_symmetry_cell_setting cubic
_symmetry_space_group_name_H-M 'I -4 3 d'
_symmetry_Int_Tables_number 220
loop_
_symmetry_equiv_pos_site_id
_symmetry_equiv_pos_as_xyz
1 x,y,z
2 1/2-x,-y,1/2+z
3 -x,1/2+y,1/2-z
4 1/2+x,1/2-y,-z
5 z,x,y
6 1/2+z,1/2-x,-y
7 1/2-z,-x,1/2+y
8 -z,1/2+x,1/2-y
9 y,z,x
10 -y,1/2+z,1/2-x
11 1/2+y,1/2-z,-x
12 1/2-y,-z,1/2+x
13 1/4+y,1/4+x,1/4+z
14 1/4-y,-1/4-x,-1/4+z
15 -1/4+y,1/4-x,-1/4-z
16 -1/4-y,-1/4+x,1/4-z
17 1/4+x,1/4+z,1/4+y
18 -1/4-x,-1/4+z,1/4-y
19 1/4-x,-1/4-z,-1/4+y
20 -1/4+x,1/4-z,-1/4-y
21 1/4+z,1/4+y,1/4+x
22 -1/4+z,1/4-y,-1/4-x
23 -1/4-z,-1/4+y,1/4-x
24 1/4-z,-1/4-y,-1/4+x
25 1/2+x,1/2+y,1/2+z
26 -x,1/2-y,z
27 1/2-x,y,-z
28 x,-y,1/2-z
29 1/2+z,1/2+x,1/2+y
30 z,-x,1/2-y
31 -z,1/2-x,y
32 1/2-z,x,-y
33 1/2+y,1/2+z,1/2+x
34 1/2-y,z,-x
35 y,-z,1/2-x
36 -y,1/2-z,x
37 -1/4+y,-1/4+x,-1/4+z
38 -1/4-y,1/4-x,1/4+z
39 1/4+y,-1/4-x,1/4-z
40 1/4-y,1/4+x,-1/4-z
41 -1/4+x,-1/4+z,-1/4+y
42 1/4-x,1/4+z,-1/4-y
43 -1/4-x,1/4-z,1/4+y
44 1/4+x,-1/4-z,1/4-y
45 -1/4+z,-1/4+y,-1/4+x
46 1/4+z,-1/4-y,1/4-x
47 1/4-z,1/4+y,-1/4-x
48 -1/4-z,1/4-y,1/4+x
_cell_length_a 23.4008(10)
_cell_length_b 23.4008(10)
_cell_length_c 23.4008(10)
_cell_angle_alpha 90
_cell_angle_beta 90
_cell_angle_gamma 90
_cell_formula_units_Z 16
loop_
_atom_type_symbol
_atom_type_radius_bond
C 0.68
H 0.23
Ir 1.32
N 0.68
loop_
_atom_site_label
_atom_site_type_symbol
_atom_site_fract_x
_atom_site_fract_y
_atom_site_fract_z
Ir1 Ir 0.064600(9) 0.064600(9) 0.064600(9)
N1 N 0.0651(2) 0.1545(2) 0.0571(2)
C1 C 0.0697(3) 0.1914(3) 0.1013(3)
H1 H 0.06980 0.17650 0.13910
C2 C 0.0743(3) 0.2502(3) 0.0940(3)
C3 C 0.0741(3) 0.2709(3) 0.0374(4)
H2 H 0.07750 0.31070 0.03000
C4 C 0.0689(3) 0.2330(3) -0.0067(4)
H3 H 0.06780 0.24710 -0.04470
C5 C 0.0652(3) 0.1743(3) 0.0024(3)
C6 C 0.0793(4) 0.2887(3) 0.1451(4)
H4 H 0.07830 0.26560 0.18010
H5 H 0.04730 0.31580 0.14540
H6 H 0.11540 0.30980 0.14330
C7 C 0.0624(3) 0.1302(3) -0.0414(3)
C8 C 0.0601(3) 0.1417(4) -0.1004(3)
H7 H 0.05950 0.18010 -0.11370
C9 C 0.0588(4) 0.0974(4) -0.1384(3)
H8 H 0.05680 0.10580 -0.17810
C10 C 0.0602(4) 0.0414(3) -0.1216(3)
C11 C 0.0615(3) 0.0297(3) -0.0626(3)
H9 H 0.06110 -0.00900 -0.05050
C12 C 0.0633(3) 0.0735(3) -0.0205(2)
C13 C 0.0589(5) -0.0064(4) -0.1631(3)
H10 H 0.05830 0.00890 -0.20210
H11 H 0.02460 -0.02960 -0.15670
H12 H 0.09300 -0.03020 -0.15800
N1D N 0.0571(2) 0.0651(2) 0.1545(2)
C1D C 0.1013(3) 0.0697(3) 0.1914(3)
H1D H 0.13910 0.06980 0.17650
C2D C 0.0940(3) 0.0743(3) 0.2502(3)
C3D C 0.0374(3) 0.0741(3) 0.2709(4)
H2D H 0.03000 0.07750 0.31070
C4D C -0.0067(3) 0.0689(3) 0.2330(4)
H3D H -0.04470 0.06780 0.24710
C5D C 0.0024(3) 0.0652(3) 0.1743(3)
C7D C -0.0414(3) 0.0624(3) 0.1302(3)
C8D C -0.1004(3) 0.0601(4) 0.1417(3)
H7D H -0.11370 0.05950 0.18010
C9D C -0.1384(4) 0.0588(4) 0.0974(3)
H8D H -0.17810 0.05680 0.10580
C10D C -0.1216(4) 0.0602(3) 0.0414(3)
C11D C -0.0626(3) 0.0615(3) 0.0297(3)
H9D H -0.05050 0.06110 -0.00900
C12D C -0.0205(3) 0.0633(3) 0.0735(2)
N1H N 0.1545(2) 0.0571(2) 0.0651(2)
C1H C 0.1914(3) 0.1013(3) 0.0697(3)
H1H H 0.17650 0.13910 0.06980
C2H C 0.2502(3) 0.0940(3) 0.0743(3)
C3H C 0.2709(3) 0.0374(3) 0.0741(4)
H2H H 0.31070 0.03000 0.07750
C4H C 0.2330(3) -0.0067(3) 0.0689(4)
H3H H 0.24710 -0.04470 0.06780
C5H C 0.1743(3) 0.0024(3) 0.0652(3)
C7H C 0.1302(3) -0.0414(3) 0.0624(3)
C8H C 0.1417(3) -0.1004(4) 0.0601(3)
H7H H 0.18010 -0.11370 0.05950
C9H C 0.0974(4) -0.1384(4) 0.0588(3)
H8H H 0.10580 -0.17810 0.05680
C10H C 0.0414(4) -0.1216(3) 0.0602(3)
C11H C 0.0297(3) -0.0626(3) 0.0615(3)
H9H H -0.00900 -0.05050 0.06110
C12H C 0.0735(3) -0.0205(3) 0.0633(2)
C13H C -0.0064(5) -0.1631(4) 0.0589(3)
H10H H 0.00890 -0.20210 0.05830
H11H H -0.02960 -0.15670 0.02460
H12H H -0.03020 -0.15800 0.09300
C6H C 0.2887(4) 0.1451(3) 0.0793(4)
H4H H 0.26560 0.18010 0.07830
H5H H 0.31580 0.14540 0.04730
H6H H 0.30980 0.14330 0.11540
C13D C -0.1631(5) 0.0589(4) -0.0064(3)
H10D H -0.20210 0.05830 0.00890
H11D H -0.15670 0.02460 -0.02960
H12D H -0.15800 0.09300 -0.03020
C6D C 0.1451(4) 0.0793(3) 0.2887(4)
H4D H 0.18010 0.07830 0.26560
H5D H 0.14540 0.04730 0.31580
H6D H 0.14330 0.11540 0.30980
#END

data_CSD_CIF_LEZVUH
_audit_creation_date 1995-03-06
_audit_creation_method CSD-ConQuest-V1
_database_code_CSD LEZVUH
_chemical_formula_sum 'C27 H39 Cl1 U1'
_chemical_formula_moiety
;
C27 H39 Cl1 U1
;
_journal_coden_Cambridge 579
_journal_volume 13
_journal_year 1994
_journal_page_first 2895
_journal_name_full 'Organometallics '
loop_
_publ_author_name
"F.G.N.Cloke"
"S.A.Hawkes"
"P.B.Hitchcock"
"P.Scott"
_chemical_name_systematic
;
Chloro-tris(\h^5^-tetramethyl-cyclopentadienyl)-uranium
;
_cell_volume   9819.591
_exptl_crystal_colour 'red'
_exptl_crystal_density_diffrn 1.72
_diffrn_ambient_temperature ?
_diffrn_special_details
;
The study was carried out at room temperature,in the range 283-303K

;
#These two values have been output from a single CSD field.
_refine_ls_R_factor_gt 0.022
_refine_ls_wR_factor_gt 0.022
_symmetry_cell_setting cubic
_symmetry_space_group_name_H-M 'I -4 3 d'
_symmetry_Int_Tables_number 220
loop_
_symmetry_equiv_pos_site_id
_symmetry_equiv_pos_as_xyz
1 x,y,z
2 1/2+x,1/2+y,1/2+z
3 z,x,y
4 y,z,x
5 1/2+z,1/2+x,1/2+y
6 1/2+y,1/2+z,1/2+x
7 1/2+x,1/2-y,-z
8 x,-y,1/2-z
9 1/2+z,1/2-x,-y
10 1/2+y,1/2-z,-x
11 z,-x,1/2-y
12 y,-z,1/2-x
13 -x,1/2+y,1/2-z
14 1/2-x,y,-z
15 -z,1/2+x,1/2-y
16 -y,1/2+z,1/2-x
17 1/2-z,x,-y
18 1/2-y,z,-x
19 1/2-x,-y,1/2+z
20 -x,1/2-y,z
21 1/2-z,-x,1/2+y
22 1/2-y,-z,1/2+x
23 -z,1/2-x,y
24 -y,1/2-z,x
25 1/4+y,1/4+x,1/4+z
26 3/4+y,3/4+x,3/4+z
27 1/4+x,1/4+z,1/4+y
28 1/4+z,1/4+y,1/4+x
29 3/4+x,3/4+z,3/4+y
30 3/4+z,3/4+y,3/4+x
31 3/4-y,3/4+x,1/4-z
32 1/4-y,1/4+x,3/4-z
33 3/4-x,3/4+z,1/4-y
34 3/4-z,3/4+y,1/4-x
35 1/4-x,1/4+z,3/4-y
36 1/4-z,1/4+y,3/4-x
37 3/4+y,1/4-x,3/4-z
38 1/4+y,3/4-x,1/4-z
39 3/4+x,1/4-z,3/4-y
40 3/4+z,1/4-y,3/4-x
41 1/4+x,3/4-z,1/4-y
42 1/4+z,3/4-y,1/4-x
43 1/4-y,3/4-x,3/4+z
44 3/4-y,1/4-x,1/4+z
45 1/4-x,3/4-z,3/4+y
46 1/4-z,3/4-y,3/4+x
47 3/4-x,1/4-z,1/4+y
48 3/4-z,1/4-y,1/4+x
_cell_length_a 21.414(7)
_cell_length_b 21.414(7)
_cell_length_c 21.414(7)
_cell_angle_alpha 90
_cell_angle_beta 90
_cell_angle_gamma 90
_cell_formula_units_Z 16
loop_
_atom_type_symbol
_atom_type_radius_bond
C 0.68
H 0.23
Cl 0.99
U 1.84
loop_
_atom_site_label
_atom_site_type_symbol
_atom_site_fract_x
_atom_site_fract_y
_atom_site_fract_z
U1 U 0.02408(2) 0.02408(2) 0.02408(2)
Cl1 Cl 0.09519(14) 0.09519(14) 0.09519(14)
C1 C -0.0876(5) 0.0093(5) 0.0763(6)
C2 C -0.0593(5) 0.0571(6) 0.1138(5)
C3 C -0.0625(5) 0.1122(5) 0.0779(6)
C4 C -0.0898(5) 0.0981(5) 0.0189(5)
C5 C -0.1055(5) 0.0337(5) 0.0189(5)
C6 C -0.0415(6) 0.0516(6) 0.1829(6)
C7 C -0.0435(6) 0.1759(6) 0.1006(6)
C8 C -0.1133(6) 0.1488(6) -0.0257(6)
C9 C -0.1435(6) 0.0010(6) -0.0307(7)
H1 H -0.08900 -0.03700 0.08600
C1B C 0.0763(5) -0.0876(5) 0.0093(6)
C1C C 0.0093(5) 0.0763(5) -0.0876(6)
C2B C 0.1138(5) -0.0593(6) 0.0571(5)
C2C C 0.0571(5) 0.1138(6) -0.0593(5)
C3B C 0.0779(5) -0.0625(5) 0.1122(6)
C3C C 0.1122(5) 0.0779(5) -0.0625(6)
C4B C 0.0189(5) -0.0898(5) 0.0981(5)
C4C C 0.0981(5) 0.0189(5) -0.0898(5)
C5B C 0.0189(5) -0.1055(5) 0.0337(5)
C5C C 0.0337(5) 0.0189(5) -0.1055(5)
H1B H 0.08600 -0.08900 -0.03700
H1C H -0.03700 0.08600 -0.08900
C6B C 0.1829(6) -0.0415(6) 0.0516(6)
C6C C 0.0516(6) 0.1829(6) -0.0415(6)
C7B C 0.1006(6) -0.0435(6) 0.1759(6)
C7C C 0.1759(6) 0.1006(6) -0.0435(6)
C8B C -0.0257(6) -0.1133(6) 0.1488(6)
C8C C 0.1488(6) -0.0257(6) -0.1133(6)
C9B C -0.0307(6) -0.1435(6) 0.0010(7)
C9C C 0.0010(6) -0.0307(6) -0.1435(7)
#END

data_CSD_CIF_MAHFEH
_audit_creation_date 2005-01-17
_audit_creation_method CSD-ConQuest-V1
_database_code_CSD MAHFEH
_database_code_depnum_ccdc_archive 'CCDC 184936'
_chemical_formula_sum 'C3 H9 Co1 N12 O3'
_chemical_formula_moiety
;
C3 H9 Co1 N12 O3
;
_journal_coden_Cambridge 1078
_journal_year 2004
_journal_name_full 'CSD Communication(Private Communication) '
loop_
_publ_author_name
"R.K.Murmann"
"C.L.Barnes"
_chemical_name_systematic
;
fac-(tris(N-nitrosoguanidate)-cobalt(iii))
;
_cell_volume   4592.010
_exptl_crystal_colour 'orange'
_exptl_crystal_density_diffrn 1.852
_exptl_special_details
;
contribution from E. O. Schlemper X-ray Laboratory, Chemistry Department 
University of Missouri, Columbia, MO 65211, USA
;
_exptl_crystal_description 'octahedral'
_exptl_crystal_preparation 'DMSO'
_diffrn_ambient_temperature 173
#These two values have been output from a single CSD field.
_refine_ls_R_factor_gt 0.0328
_refine_ls_wR_factor_gt 0.0328
_symmetry_cell_setting cubic
_symmetry_space_group_name_H-M 'I -4 3 d'
_symmetry_Int_Tables_number 220
loop_
_symmetry_equiv_pos_site_id
_symmetry_equiv_pos_as_xyz
1 x,y,z
2 1/4+y,3/4-x,1/4-z
3 -x,1/2-y,z
4 1/4-y,1/4+x,3/4-z
5 1/4-x,1/4+z,3/4-y
6 x,-y,1/2-z
7 3/4-x,1/4-z,1/4+y
8 3/4-z,1/4-y,1/4+x
9 1/2-x,y,-z
10 1/4+z,3/4-y,1/4-x
11 z,x,y
12 y,z,x
13 -y,1/2-z,x
14 z,-x,1/2-y
15 1/2-y,z,-x
16 -z,1/2-x,y
17 1/2-z,x,-y
18 y,-z,1/2-x
19 3/4-y,1/4-x,1/4+z
20 1/4+y,1/4+x,1/4+z
21 1/4+x,3/4-z,1/4-y
22 1/4+x,1/4+z,1/4+y
23 1/4-z,1/4+y,3/4-x
24 1/4+z,1/4+y,1/4+x
25 1/2+x,1/2+y,1/2+z
26 3/4+y,1/4-x,3/4-z
27 1/2-x,-y,1/2+z
28 3/4-y,3/4+x,1/4-z
29 3/4-x,3/4+z,1/4-y
30 1/2+x,1/2-y,-z
31 1/4-x,3/4-z,3/4+y
32 1/4-z,3/4-y,3/4+x
33 -x,1/2+y,1/2-z
34 3/4+z,1/4-y,3/4-x
35 1/2+z,1/2+x,1/2+y
36 1/2+y,1/2+z,1/2+x
37 1/2-y,-z,1/2+x
38 1/2+z,1/2-x,-y
39 -y,1/2+z,1/2-x
40 1/2-z,-x,1/2+y
41 -z,1/2+x,1/2-y
42 1/2+y,1/2-z,-x
43 1/4-y,3/4-x,3/4+z
44 3/4+y,3/4+x,3/4+z
45 3/4+x,1/4-z,3/4-y
46 3/4+x,3/4+z,3/4+y
47 3/4-z,3/4+y,1/4-x
48 3/4+z,3/4+y,3/4+x
_cell_length_a 16.6214(12)
_cell_length_b 16.6214(12)
_cell_length_c 16.6214(12)
_cell_angle_alpha 90
_cell_angle_beta 90
_cell_angle_gamma 90
_cell_formula_units_Z 16
loop_
_atom_type_symbol
_atom_type_radius_bond
C 0.68
H 0.23
Co 1.33
N 0.68
O 0.68
loop_
_atom_site_label
_atom_site_type_symbol
_atom_site_fract_x
_atom_site_fract_y
_atom_site_fract_z
Co1 Co 0.58909(2) 0.41091(2) 0.91091(2)
O1 O 0.61573(16) 0.50863(14) 1.04601(14)
N1 N 0.62588(18) 0.30910(16) 0.94743(16)
H1 H 0.63000 0.26650 0.91620
N2 N 0.61976(17) 0.43899(16) 1.01842(17)
N3 N 0.64616(16) 0.38265(17) 1.06460(16)
N4 N 0.6639(2) 0.24554(17) 1.06803(17)
H2 H 0.66510 0.19730 1.04630
H3 H 0.67550 0.25180 1.11930
C1 C 0.64438(19) 0.30905(19) 1.0233(2)
N1LA N 0.69090(18) 0.44743(16) 0.87412(16)
H1LA H 0.73350 0.41620 0.87000
C1LA C 0.69095(19) 0.52330(19) 0.85562(20)
N3LA N 0.61735(16) 0.56460(17) 0.85384(16)
N2LA N 0.56101(17) 0.51842(16) 0.88024(17)
N1MA N 0.55257(18) 0.37412(16) 0.80910(16)
H1MA H 0.58380 0.37000 0.76650
C1MA C 0.47670(19) 0.35562(19) 0.80905(20)
N3MA N 0.43540(16) 0.35384(17) 0.88265(16)
N2MA N 0.48158(17) 0.38024(16) 0.93899(17)
O1MA O 0.45399(16) 0.38427(14) 1.00863(14)
N4MA N 0.43197(20) 0.33610(17) 0.74554(17)
H2MA H 0.45370 0.33490 0.69730
H3MA H 0.38070 0.32450 0.75180
O1LA O 0.49137(16) 0.54601(14) 0.88427(14)
N4LA N 0.75446(20) 0.56803(17) 0.83610(17)
H2LA H 0.80270 0.54630 0.83490
H3LA H 0.74820 0.61930 0.82450
#END

data_CSD_CIF_MAJDAG
_audit_creation_date 2020-12-08
_audit_creation_method CSD-ConQuest-V1
_database_code_CSD MAJDAG
_database_code_depnum_ccdc_archive 'CCDC 1983070'
_chemical_formula_sum 'C27 H39 Cl1 Th1'
_chemical_formula_moiety
;
C27 H39 Cl1 Th1
;
_journal_coden_Cambridge 1441
_journal_volume 13
_journal_year 2020
_journal_page_first 149
_journal_name_full 'Nature Chemistry '
loop_
_publ_author_name
"A.R.Eulenstein"
"Y.J.Franzke"
"N.Lichtenberger"
"R.J.Wilson"
"H.Lars Deubner"
"F.Kraus"
"R.Clerac"
"F.Weigend"
"S.Dehnen"
_chemical_name_systematic
;
(\h^5^-tetramethylcyclopentadienyl)-chloro-thorium(iv)
;
_cell_volume   9685.254
_exptl_crystal_colour 'colorless'
_exptl_crystal_density_diffrn 1.731
_exptl_special_details
;
salt metathesis

;
_exptl_crystal_description 'plate'
_diffrn_ambient_temperature 100
#These two values have been output from a single CSD field.
_refine_ls_R_factor_gt 0.0129
_refine_ls_wR_factor_gt 0.0129
_symmetry_cell_setting cubic
_symmetry_space_group_name_H-M 'I -4 3 d'
_symmetry_Int_Tables_number 220
loop_
_symmetry_equiv_pos_site_id
_symmetry_equiv_pos_as_xyz
1 x,y,z
2 1/2-x,-y,1/2+z
3 -x,1/2+y,1/2-z
4 1/2+x,1/2-y,-z
5 z,x,y
6 1/2+z,1/2-x,-y
7 1/2-z,-x,1/2+y
8 -z,1/2+x,1/2-y
9 y,z,x
10 -y,1/2+z,1/2-x
11 1/2+y,1/2-z,-x
12 1/2-y,-z,1/2+x
13 1/4+y,1/4+x,1/4+z
14 1/4-y,3/4-x,3/4+z
15 3/4+y,1/4-x,3/4-z
16 3/4-y,3/4+x,1/4-z
17 1/4+x,1/4+z,1/4+y
18 3/4-x,3/4+z,1/4-y
19 1/4-x,3/4-z,3/4+y
20 3/4+x,1/4-z,3/4-y
21 1/4+z,1/4+y,1/4+x
22 3/4+z,1/4-y,3/4-x
23 3/4-z,3/4+y,1/4-x
24 1/4-z,3/4-y,3/4+x
25 1/2+x,1/2+y,1/2+z
26 -x,1/2-y,z
27 1/2-x,y,-z
28 x,-y,1/2-z
29 1/2+z,1/2+x,1/2+y
30 z,-x,1/2-y
31 -z,1/2-x,y
32 1/2-z,x,-y
33 1/2+y,1/2+z,1/2+x
34 1/2-y,z,-x
35 y,-z,1/2-x
36 -y,1/2-z,x
37 3/4+y,3/4+x,3/4+z
38 3/4-y,1/4-x,1/4+z
39 1/4+y,3/4-x,1/4-z
40 1/4-y,1/4+x,3/4-z
41 3/4+x,3/4+z,3/4+y
42 1/4-x,1/4+z,3/4-y
43 3/4-x,1/4-z,1/4+y
44 1/4+x,3/4-z,1/4-y
45 3/4+z,3/4+y,3/4+x
46 1/4+z,3/4-y,1/4-x
47 1/4-z,1/4+y,3/4-x
48 3/4-z,1/4-y,1/4+x
_cell_length_a 21.3159(3)
_cell_length_b 21.3159(3)
_cell_length_c 21.3159(3)
_cell_angle_alpha 90
_cell_angle_beta 90
_cell_angle_gamma 90
_cell_formula_units_Z 16
loop_
_atom_type_symbol
_atom_type_radius_bond
C 0.68
H 0.23
Cl 0.99
Th 2.06
loop_
_atom_site_label
_atom_site_type_symbol
_atom_site_fract_x
_atom_site_fract_y
_atom_site_fract_z
Th1 Th -0.02479(2) 0.52479(2) 0.47521(2)
Cl1 Cl -0.09755(5) 0.59755(5) 0.40245(5)
C1 C 0.10787(16) 0.53365(19) 0.4786(2)
C2 C 0.06392(19) 0.61295(19) 0.4205(2)
C3 C 0.0618(2) 0.5572(2) 0.38370(18)
C4 C 0.08954(19) 0.50880(19) 0.4198(2)
H1 H 0.09499 0.46656 0.40667
C5 C 0.1440(2) 0.4989(2) 0.5286(2)
H2 H 0.13555 0.51795 0.56965
H3 H 0.18903 0.50150 0.51959
H4 H 0.13099 0.45487 0.52920
C6 C 0.1171(2) 0.6458(2) 0.5252(2)
H5 H 0.12965 0.62419 0.56383
H6 H 0.08377 0.67602 0.53477
H7 H 0.15327 0.66793 0.50757
C7 C 0.0410(2) 0.5547(2) 0.31651(19)
H8 H 0.02434 0.51286 0.30717
H9 H 0.07682 0.56340 0.28905
H10 H 0.00824 0.58616 0.30942
C8 C 0.0453(2) 0.6772(2) 0.3979(2)
H11 H 0.06730 0.68665 0.35870
H12 H 0.05643 0.70848 0.42971
H13 H -0.00013 0.67830 0.39064
C9 C 0.09315(19) 0.5983(2) 0.47828(19)
C1E C -0.02140(16) 0.39213(19) 0.46635(20)
C2E C -0.07950(19) 0.43608(19) 0.38705(20)
C3E C -0.1163(2) 0.4382(2) 0.44280(18)
C4E C -0.08020(19) 0.41046(19) 0.4912(2)
H1E H -0.09333 0.40501 0.53344
C5E C 0.0286(2) 0.3560(2) 0.5011(2)
H2E H 0.06965 0.36445 0.48205
H3E H 0.01959 0.31097 0.49850
H4E H 0.02920 0.36901 0.54513
C6E C 0.0252(2) 0.3829(2) 0.3542(2)
H5E H 0.06383 0.37035 0.37581
H6E H 0.03477 0.41623 0.32398
H7E H 0.00757 0.34673 0.33207
C7E C -0.18349(20) 0.4590(2) 0.44530(19)
H8E H -0.19283 0.47566 0.48714
H9E H -0.21095 0.42318 0.43660
H10E H -0.19058 0.49176 0.41384
C8E C -0.1021(2) 0.4547(2) 0.3228(2)
H11E H -0.14130 0.43270 0.31335
H12E H -0.07029 0.44357 0.29152
H13E H -0.10936 0.50013 0.32170
C9E C -0.02172(19) 0.40685(20) 0.40170(19)
C1K C -0.03365(16) 0.52140(19) 0.60787(20)
C2K C -0.11295(19) 0.57950(19) 0.56392(20)
C3K C -0.0572(2) 0.6163(2) 0.56180(18)
C4K C -0.00880(19) 0.58020(19) 0.58954(20)
H1K H 0.03344 0.59333 0.59499
C5K C 0.0011(2) 0.4714(2) 0.6440(2)
H2K H -0.01795 0.43035 0.63555
H3K H -0.00150 0.48041 0.68903
H4K H 0.04513 0.47080 0.63099
C6K C -0.1458(2) 0.4748(2) 0.6171(2)
H5K H -0.12419 0.43617 0.62965
H6K H -0.17602 0.46523 0.58377
H7K H -0.16793 0.49243 0.65327
C7K C -0.0547(2) 0.68349(20) 0.54100(19)
H8K H -0.01286 0.69283 0.52434
H9K H -0.06340 0.71095 0.57682
H10K H -0.08616 0.69058 0.50824
C8K C -0.1772(2) 0.6021(2) 0.5453(2)
H11K H -0.18665 0.64129 0.56730
H12K H -0.20848 0.57029 0.55643
H13K H -0.17830 0.60936 0.49987
C9K C -0.09830(19) 0.52172(20) 0.59315(19)
#END

data_CSD_CIF_MAWSEJ
_audit_creation_date 2006-03-02
_audit_creation_method CSD-ConQuest-V1
_database_code_CSD MAWSEJ
_database_code_depnum_ccdc_archive 'CCDC 258908'
_chemical_formula_sum 'C12 H20 Cl2 N4 Ni1 O4'
_chemical_formula_moiety
;
C12 H20 Cl2 N4 Ni1 O4
;
_journal_coden_Cambridge 29
_journal_volume 631
_journal_year 2005
_journal_page_first 2763
_journal_name_full 'Z.Anorg.Allg.Chem. '
loop_
_publ_author_name
"K.B.Girma"
"V.Lorenz"
"S.Blaurock"
"F.T.Edelmann"
_chemical_name_systematic
;
Dichloro-tetrakis(2-propenamide-O)-nickel(ii)
;
_chemical_melting_point 463.15
_cell_volume   5596.898
_exptl_crystal_colour 'yellow'
_exptl_crystal_density_diffrn 1.474
_exptl_special_details
;
Melts with decomposition.

;
_exptl_crystal_description 'platelet'
_diffrn_ambient_temperature ?
_diffrn_special_details
;
The study was carried out at room temperature,in the range 283-303K

;
#These two values have been output from a single CSD field.
_refine_ls_R_factor_gt 0.0297
_refine_ls_wR_factor_gt 0.0297
_symmetry_cell_setting cubic
_symmetry_space_group_name_H-M 'I -4 3 d'
_symmetry_Int_Tables_number 220
loop_
_symmetry_equiv_pos_site_id
_symmetry_equiv_pos_as_xyz
1 x,y,z
2 1/2-x,-y,1/2+z
3 -x,1/2+y,1/2-z
4 1/2+x,1/2-y,-z
5 z,x,y
6 1/2+z,1/2-x,-y
7 1/2-z,-x,1/2+y
8 -z,1/2+x,1/2-y
9 y,z,x
10 -y,1/2+z,1/2-x
11 1/2+y,1/2-z,-x
12 1/2-y,-z,1/2+x
13 1/4+y,1/4+x,1/4+z
14 1/4-y,3/4-x,3/4+z
15 3/4+y,1/4-x,3/4-z
16 3/4-y,3/4+x,1/4-z
17 1/4+x,1/4+z,1/4+y
18 3/4-x,3/4+z,1/4-y
19 1/4-x,3/4-z,3/4+y
20 3/4+x,1/4-z,3/4-y
21 1/4+z,1/4+y,1/4+x
22 3/4+z,1/4-y,3/4-x
23 3/4-z,3/4+y,1/4-x
24 1/4-z,3/4-y,3/4+x
25 1/2+x,1/2+y,1/2+z
26 -x,1/2-y,z
27 1/2-x,y,-z
28 x,-y,1/2-z
29 1/2+z,1/2+x,1/2+y
30 z,-x,1/2-y
31 -z,1/2-x,y
32 1/2-z,x,-y
33 1/2+y,1/2+z,1/2+x
34 1/2-y,z,-x
35 y,-z,1/2-x
36 -y,1/2-z,x
37 3/4+y,3/4+x,3/4+z
38 3/4-y,1/4-x,1/4+z
39 1/4+y,3/4-x,1/4-z
40 1/4-y,1/4+x,3/4-z
41 3/4+x,3/4+z,3/4+y
42 1/4-x,1/4+z,3/4-y
43 3/4-x,1/4-z,1/4+y
44 1/4+x,3/4-z,1/4-y
45 3/4+z,3/4+y,3/4+x
46 1/4+z,3/4-y,1/4-x
47 1/4-z,1/4+y,3/4-x
48 3/4-z,1/4-y,1/4+x
_cell_length_a 17.7548(5)
_cell_length_b 17.7548(5)
_cell_length_c 17.7548(5)
_cell_angle_alpha 90
_cell_angle_beta 90
_cell_angle_gamma 90
_cell_formula_units_Z 12
loop_
_atom_type_symbol
_atom_type_radius_bond
C 0.68
H 0.23
Cl 0.99
N 0.68
Ni 1.50
O 0.68
loop_
_atom_site_label
_atom_site_type_symbol
_atom_site_fract_x
_atom_site_fract_y
_atom_site_fract_z
Ni1 Ni 0.50000 0.75000 0.87500
Cl1 Cl 0.50000 0.75000 1.01127(3)
O1 O 0.61609(8) 0.73688(8) 0.88014(9)
N1 N 0.63570(12) 0.63900(12) 0.80196(15)
C1 C 0.77294(15) 0.7416(2) 0.9066(2)
C2 C 0.74055(11) 0.68918(15) 0.86745(14)
C3 C 0.65892(11) 0.68987(12) 0.84996(12)
H1 H 0.823(3) 0.749(3) 0.916(2)
H2 H 0.7493(19) 0.7820(18) 0.9195(17)
H3 H 0.588(2) 0.633(2) 0.789(2)
H4 H 0.664(2) 0.608(2) 0.788(2)
H5 H 0.768(2) 0.658(2) 0.852(3)
Cl1N Cl 0.50000 0.75000 0.73873(3)
O1N O 0.48688(8) 0.63391(8) 0.86986(9)
O1Y O 0.38391(8) 0.76312(8) 0.88014(9)
O1MA O 0.51312(8) 0.86609(8) 0.86986(9)
N1N N 0.38900(12) 0.61430(12) 0.94804(15)
N1Y N 0.36430(12) 0.86100(12) 0.80196(15)
N1MA N 0.61100(12) 0.88570(12) 0.94804(15)
C1N C 0.49160(15) 0.47706(20) 0.8434(2)
C1Y C 0.22706(15) 0.7584(2) 0.9066(2)
C1MA C 0.50840(15) 1.02294(20) 0.8434(2)
C2N C 0.43918(11) 0.50945(15) 0.88255(14)
C2Y C 0.25945(11) 0.81082(15) 0.86745(14)
C2MA C 0.56082(11) 0.99055(15) 0.88255(14)
C3N C 0.43987(11) 0.59108(12) 0.90004(12)
C3Y C 0.34108(11) 0.81013(12) 0.84996(12)
C3MA C 0.56013(11) 0.90892(12) 0.90004(12)
H1N H 0.499(3) 0.427(3) 0.834(2)
H1Y H 0.177(3) 0.751(3) 0.916(2)
H1MA H 0.501(3) 1.073(3) 0.834(2)
H2N H 0.5320(19) 0.5007(18) 0.8305(17)
H2Y H 0.2507(19) 0.7180(18) 0.9195(17)
H2MA H 0.4680(19) 0.9993(18) 0.8305(17)
H3N H 0.383(2) 0.662(2) 0.961(2)
H3Y H 0.412(2) 0.867(2) 0.789(2)
H3MA H 0.617(2) 0.838(2) 0.961(2)
H4N H 0.358(2) 0.586(2) 0.962(2)
H4Y H 0.336(2) 0.892(2) 0.788(2)
H4MA H 0.642(2) 0.914(2) 0.962(2)
H5N H 0.408(2) 0.482(2) 0.898(3)
H5Y H 0.232(2) 0.842(2) 0.852(3)
H5MA H 0.592(2) 1.018(2) 0.898(3)
#END

data_CSD_CIF_MAWSIN
_audit_creation_date 2006-03-02
_audit_creation_method CSD-ConQuest-V1
_database_code_CSD MAWSIN
_database_code_depnum_ccdc_archive 'CCDC 258909'
_chemical_formula_sum 'C12 H20 Cl2 Fe1 N4 O4'
_chemical_formula_moiety
;
C12 H20 Cl2 Fe1 N4 O4
;
_journal_coden_Cambridge 29
_journal_volume 631
_journal_year 2005
_journal_page_first 2763
_journal_name_full 'Z.Anorg.Allg.Chem. '
loop_
_publ_author_name
"K.B.Girma"
"V.Lorenz"
"S.Blaurock"
"F.T.Edelmann"
_chemical_name_systematic
;
Dichloro-tetrakis(2-propenamide-O)-iron(ii)
;
_chemical_melting_point 389.15
_cell_volume   5749.192
_exptl_crystal_colour 'yellow'
_exptl_crystal_density_diffrn 1.425
_exptl_special_details
;
Melting point range 389.15-391.15K

;
_exptl_crystal_description 'platelet'
_diffrn_ambient_temperature 200
#These two values have been output from a single CSD field.
_refine_ls_R_factor_gt 0.0197
_refine_ls_wR_factor_gt 0.0197
_symmetry_cell_setting cubic
_symmetry_space_group_name_H-M 'I -4 3 d'
_symmetry_Int_Tables_number 220
loop_
_symmetry_equiv_pos_site_id
_symmetry_equiv_pos_as_xyz
1 x,y,z
2 1/2-x,-y,1/2+z
3 -x,1/2+y,1/2-z
4 1/2+x,1/2-y,-z
5 z,x,y
6 1/2+z,1/2-x,-y
7 1/2-z,-x,1/2+y
8 -z,1/2+x,1/2-y
9 y,z,x
10 -y,1/2+z,1/2-x
11 1/2+y,1/2-z,-x
12 1/2-y,-z,1/2+x
13 1/4+y,1/4+x,1/4+z
14 1/4-y,3/4-x,3/4+z
15 3/4+y,1/4-x,3/4-z
16 3/4-y,3/4+x,1/4-z
17 1/4+x,1/4+z,1/4+y
18 3/4-x,3/4+z,1/4-y
19 1/4-x,3/4-z,3/4+y
20 3/4+x,1/4-z,3/4-y
21 1/4+z,1/4+y,1/4+x
22 3/4+z,1/4-y,3/4-x
23 3/4-z,3/4+y,1/4-x
24 1/4-z,3/4-y,3/4+x
25 1/2+x,1/2+y,1/2+z
26 -x,1/2-y,z
27 1/2-x,y,-z
28 x,-y,1/2-z
29 1/2+z,1/2+x,1/2+y
30 z,-x,1/2-y
31 -z,1/2-x,y
32 1/2-z,x,-y
33 1/2+y,1/2+z,1/2+x
34 1/2-y,z,-x
35 y,-z,1/2-x
36 -y,1/2-z,x
37 3/4+y,3/4+x,3/4+z
38 3/4-y,1/4-x,1/4+z
39 1/4+y,3/4-x,1/4-z
40 1/4-y,1/4+x,3/4-z
41 3/4+x,3/4+z,3/4+y
42 1/4-x,1/4+z,3/4-y
43 3/4-x,1/4-z,1/4+y
44 1/4+x,3/4-z,1/4-y
45 3/4+z,3/4+y,3/4+x
46 1/4+z,3/4-y,1/4-x
47 1/4-z,1/4+y,3/4-x
48 3/4-z,1/4-y,1/4+x
_cell_length_a 17.9144(1)
_cell_length_b 17.9144(1)
_cell_length_c 17.9144(1)
_cell_angle_alpha 90
_cell_angle_beta 90
_cell_angle_gamma 90
_cell_formula_units_Z 12
loop_
_atom_type_symbol
_atom_type_radius_bond
C 0.68
H 0.23
Cl 0.99
Fe 1.34
N 0.68
O 0.68
loop_
_atom_site_label
_atom_site_type_symbol
_atom_site_fract_x
_atom_site_fract_y
_atom_site_fract_z
Fe1 Fe 0.50000 0.75000 0.87500
Cl1 Cl 0.50000 0.75000 1.014393(19)
N1 N 0.36261(7) 0.86069(7) 0.80283(9)
O1 O 0.38194(5) 0.76341(5) 0.87967(5)
C1 C 0.22648(9) 0.75901(13) 0.90625(12)
C2 C 0.25850(7) 0.81092(9) 0.86740(9)
C3 C 0.33911(7) 0.81006(7) 0.85007(7)
H1 H 0.1718(12) 0.7589(13) 0.9132(13)
H2 H 0.251(1) 0.7193(10) 0.9196(11)
H3 H 0.2314(10) 0.8411(11) 0.8536(11)
H4 H 0.3328(10) 0.8966(11) 0.7909(9)
H5 H 0.4113(15) 0.8645(15) 0.7923(15)
Cl1N Cl 0.50000 0.75000 0.735607(19)
N1N N 0.61069(7) 0.88739(7) 0.94717(9)
N1Y N 0.63739(7) 0.63931(7) 0.80283(9)
N1MA N 0.38931(7) 0.61261(7) 0.94717(9)
O1N O 0.51341(5) 0.86806(5) 0.87033(5)
O1Y O 0.61806(5) 0.73659(5) 0.87967(5)
O1MA O 0.48659(5) 0.63194(5) 0.87033(5)
C1N C 0.50901(9) 1.02352(13) 0.84375(12)
C1Y C 0.77352(9) 0.74099(13) 0.90625(12)
C1MA C 0.49099(9) 0.47648(13) 0.84375(12)
C2N C 0.56092(7) 0.99150(9) 0.88260(9)
C2Y C 0.74150(7) 0.68908(9) 0.86740(9)
C2MA C 0.43908(7) 0.50850(9) 0.88260(9)
C3N C 0.56006(7) 0.91089(7) 0.89993(7)
C3Y C 0.66089(7) 0.68994(7) 0.85007(7)
C3MA C 0.43994(7) 0.58911(7) 0.89993(7)
H1N H 0.5089(12) 1.0782(13) 0.8368(13)
H1Y H 0.8282(12) 0.7411(13) 0.9132(13)
H1MA H 0.4911(12) 0.4218(13) 0.8368(13)
H2N H 0.4693(10) 0.999(1) 0.8304(11)
H2Y H 0.749(1) 0.7807(10) 0.9196(11)
H2MA H 0.5307(10) 0.501(1) 0.8304(11)
H3N H 0.5911(10) 1.0186(11) 0.8964(11)
H3Y H 0.7686(10) 0.6589(11) 0.8536(11)
H3MA H 0.4089(10) 0.4814(11) 0.8964(11)
H4N H 0.6466(10) 0.9172(11) 0.9591(9)
H4Y H 0.6672(10) 0.6034(11) 0.7909(9)
H4MA H 0.3534(10) 0.5828(11) 0.9591(9)
H5N H 0.6145(15) 0.8387(15) 0.9577(15)
H5Y H 0.5887(15) 0.6355(15) 0.7923(15)
H5MA H 0.3855(15) 0.6613(15) 0.9577(15)
#END

data_CSD_CIF_MAWSOT
_audit_creation_date 2006-03-02
_audit_creation_method CSD-ConQuest-V1
_database_code_CSD MAWSOT
_database_code_depnum_ccdc_archive 'CCDC 258910'
_chemical_formula_sum 'C12 H20 Cl2 Mn1 N4 O4'
_chemical_formula_moiety
;
C12 H20 Cl2 Mn1 N4 O4
;
_journal_coden_Cambridge 29
_journal_volume 631
_journal_year 2005
_journal_page_first 2763
_journal_name_full 'Z.Anorg.Allg.Chem. '
loop_
_publ_author_name
"K.B.Girma"
"V.Lorenz"
"S.Blaurock"
"F.T.Edelmann"
_chemical_name_systematic
;
Dichloro-tetrakis(2-propenamide-O)-manganese(ii)
;
_chemical_melting_point 497.15
_cell_volume   5855.262
_exptl_crystal_colour 'colorless'
_exptl_crystal_density_diffrn 1.396
_exptl_crystal_description 'cubes'
_diffrn_ambient_temperature 210
#These two values have been output from a single CSD field.
_refine_ls_R_factor_gt 0.0212
_refine_ls_wR_factor_gt 0.0212
_symmetry_cell_setting cubic
_symmetry_space_group_name_H-M 'I -4 3 d'
_symmetry_Int_Tables_number 220
loop_
_symmetry_equiv_pos_site_id
_symmetry_equiv_pos_as_xyz
1 x,y,z
2 1/2-x,-y,1/2+z
3 -x,1/2+y,1/2-z
4 1/2+x,1/2-y,-z
5 z,x,y
6 1/2+z,1/2-x,-y
7 1/2-z,-x,1/2+y
8 -z,1/2+x,1/2-y
9 y,z,x
10 -y,1/2+z,1/2-x
11 1/2+y,1/2-z,-x
12 1/2-y,-z,1/2+x
13 1/4+y,1/4+x,1/4+z
14 1/4-y,3/4-x,3/4+z
15 3/4+y,1/4-x,3/4-z
16 3/4-y,3/4+x,1/4-z
17 1/4+x,1/4+z,1/4+y
18 3/4-x,3/4+z,1/4-y
19 1/4-x,3/4-z,3/4+y
20 3/4+x,1/4-z,3/4-y
21 1/4+z,1/4+y,1/4+x
22 3/4+z,1/4-y,3/4-x
23 3/4-z,3/4+y,1/4-x
24 1/4-z,3/4-y,3/4+x
25 1/2+x,1/2+y,1/2+z
26 -x,1/2-y,z
27 1/2-x,y,-z
28 x,-y,1/2-z
29 1/2+z,1/2+x,1/2+y
30 z,-x,1/2-y
31 -z,1/2-x,y
32 1/2-z,x,-y
33 1/2+y,1/2+z,1/2+x
34 1/2-y,z,-x
35 y,-z,1/2-x
36 -y,1/2-z,x
37 3/4+y,3/4+x,3/4+z
38 3/4-y,1/4-x,1/4+z
39 1/4+y,3/4-x,1/4-z
40 1/4-y,1/4+x,3/4-z
41 3/4+x,3/4+z,3/4+y
42 1/4-x,1/4+z,3/4-y
43 3/4-x,1/4-z,1/4+y
44 1/4+x,3/4-z,1/4-y
45 3/4+z,3/4+y,3/4+x
46 1/4+z,3/4-y,1/4-x
47 1/4-z,1/4+y,3/4-x
48 3/4-z,1/4-y,1/4+x
_cell_length_a 18.0239(4)
_cell_length_b 18.0239(4)
_cell_length_c 18.0239(4)
_cell_angle_alpha 90
_cell_angle_beta 90
_cell_angle_gamma 90
_cell_formula_units_Z 12
loop_
_atom_type_symbol
_atom_type_radius_bond
C 0.68
H 0.23
Cl 0.99
Mn 1.35
N 0.68
O 0.68
loop_
_atom_site_label
_atom_site_type_symbol
_atom_site_fract_x
_atom_site_fract_y
_atom_site_fract_z
Mn1 Mn 0.00000 0.25000 0.87500
Cl1 Cl 0.00000 0.25000 1.01516(2)
O1 O 0.12052(5) 0.26264(6) 0.87920(6)
N1 N 0.13986(9) 0.36011(9) 0.80481(11)
C1 C 0.27424(11) 0.25853(17) 0.90674(15)
C2 C 0.24311(9) 0.30993(11) 0.86810(11)
C3 C 0.16313(8) 0.30939(9) 0.85072(8)
H1 H 0.0902(16) 0.3644(17) 0.7944(17)
H2 H 0.1671(12) 0.3954(12) 0.7928(12)
H3 H 0.2501(13) 0.2178(13) 0.9220(12)
H4 H 0.3286(13) 0.2562(16) 0.9152(13)
H5 H 0.2690(12) 0.3430(13) 0.8534(13)
Cl1N Cl 0.00000 0.25000 0.73484(2)
O1N O 0.01264(5) 0.12948(6) 0.87080(6)
O1Y O -0.12052(5) 0.23736(6) 0.87920(6)
O1MA O -0.01264(5) 0.37052(6) 0.87080(6)
N1N N 0.11011(9) 0.11014(9) 0.94519(11)
N1Y N -0.13986(9) 0.13989(9) 0.80481(11)
N1MA N -0.11011(9) 0.38986(9) 0.94519(11)
C1N C 0.00853(11) -0.02424(17) 0.84326(15)
C1Y C -0.27424(11) 0.24147(17) 0.90674(15)
C1MA C -0.00853(11) 0.52424(17) 0.84326(15)
C2N C 0.05993(9) 0.00689(11) 0.88190(11)
C2Y C -0.24311(9) 0.19007(11) 0.86810(11)
C2MA C -0.05993(9) 0.49311(11) 0.88190(11)
C3N C 0.05939(8) 0.08687(9) 0.89928(8)
C3Y C -0.16313(8) 0.19061(9) 0.85072(8)
C3MA C -0.05939(8) 0.41313(9) 0.89928(8)
H1N H 0.1144(16) 0.1598(17) 0.9556(17)
H1Y H -0.0902(16) 0.1356(17) 0.7944(17)
H1MA H -0.1144(16) 0.3402(17) 0.9556(17)
H2N H 0.1454(12) 0.0829(12) 0.9572(12)
H2Y H -0.1671(12) 0.1046(12) 0.7928(12)
H2MA H -0.1454(12) 0.4171(12) 0.9572(12)
H3N H -0.0322(13) -0.0001(13) 0.8280(12)
H3Y H -0.2501(13) 0.2822(13) 0.9220(12)
H3MA H 0.0322(13) 0.5001(13) 0.8280(12)
H4N H 0.0062(13) -0.0786(16) 0.8348(13)
H4Y H -0.3286(13) 0.2438(16) 0.9152(13)
H4MA H -0.0062(13) 0.5786(16) 0.8348(13)
H5N H 0.0930(12) -0.0190(13) 0.8966(13)
H5Y H -0.2690(12) 0.1570(13) 0.8534(13)
H5MA H -0.0930(12) 0.5190(13) 0.8966(13)
#END

data_CSD_CIF_MIYXOI
_audit_creation_date 2008-10-10
_audit_creation_method CSD-ConQuest-V1
_database_code_CSD MIYXOI
_database_code_depnum_ccdc_archive 'CCDC 662000'
_chemical_formula_sum 'C24 H27 Mn3 N12 Ni1 O10'
_chemical_formula_moiety
;
C24 H27 Mn3 N12 Ni1 O10
;
_journal_coden_Cambridge 9
_journal_volume 47
_journal_year 2008
_journal_page_first 3188
_journal_name_full 'Inorg.Chem. '
loop_
_publ_author_name
"P.L.Feng"
"C.C.Beedle"
"Changhyun Koo"
"W.Wernsdorfer"
"M.Nakano"
"S.Hill"
"D.N.Hendrickson"
_chemical_name_systematic
;
(\m~3~-Oxo)-tris(\m~3~-(2-pyridyl)methanolato)-tris(\m~2~-acetato)-tris(azido)
-tri-manganese(iii)-nickel(ii)
;
_cell_volume  12926.583
_exptl_crystal_colour 'red'
_exptl_crystal_density_diffrn 1.782
_exptl_crystal_description 'block'
_diffrn_ambient_temperature 100
#These two values have been output from a single CSD field.
_refine_ls_R_factor_gt 0.032
_refine_ls_wR_factor_gt 0.032
_symmetry_cell_setting cubic
_symmetry_space_group_name_H-M 'I -4 3 d'
_symmetry_Int_Tables_number 220
loop_
_symmetry_equiv_pos_site_id
_symmetry_equiv_pos_as_xyz
1 x,y,z
2 1/2-x,-y,1/2+z
3 -x,1/2+y,1/2-z
4 1/2+x,1/2-y,-z
5 z,x,y
6 1/2+z,1/2-x,-y
7 1/2-z,-x,1/2+y
8 -z,1/2+x,1/2-y
9 y,z,x
10 -y,1/2+z,1/2-x
11 1/2+y,1/2-z,-x
12 1/2-y,-z,1/2+x
13 1/4+y,1/4+x,1/4+z
14 1/4-y,3/4-x,3/4+z
15 3/4+y,1/4-x,3/4-z
16 3/4-y,3/4+x,1/4-z
17 1/4+x,1/4+z,1/4+y
18 3/4-x,3/4+z,1/4-y
19 1/4-x,3/4-z,3/4+y
20 3/4+x,1/4-z,3/4-y
21 1/4+z,1/4+y,1/4+x
22 3/4+z,1/4-y,3/4-x
23 3/4-z,3/4+y,1/4-x
24 1/4-z,3/4-y,3/4+x
25 1/2+x,1/2+y,1/2+z
26 -x,1/2-y,z
27 1/2-x,y,-z
28 x,-y,1/2-z
29 1/2+z,1/2+x,1/2+y
30 z,-x,1/2-y
31 -z,1/2-x,y
32 1/2-z,x,-y
33 1/2+y,1/2+z,1/2+x
34 1/2-y,z,-x
35 y,-z,1/2-x
36 -y,1/2-z,x
37 3/4+y,3/4+x,3/4+z
38 3/4-y,1/4-x,1/4+z
39 1/4+y,3/4-x,1/4-z
40 1/4-y,1/4+x,3/4-z
41 3/4+x,3/4+z,3/4+y
42 1/4-x,1/4+z,3/4-y
43 3/4-x,1/4-z,1/4+y
44 1/4+x,3/4-z,1/4-y
45 3/4+z,3/4+y,3/4+x
46 1/4+z,3/4-y,1/4-x
47 1/4-z,1/4+y,3/4-x
48 3/4-z,1/4-y,1/4+x
_cell_length_a 23.469(6)
_cell_length_b 23.469(6)
_cell_length_c 23.469(6)
_cell_angle_alpha 90
_cell_angle_beta 90
_cell_angle_gamma 90
_cell_formula_units_Z 16
loop_
_atom_type_symbol
_atom_type_radius_bond
C 0.68
H 0.23
Mn 1.30
N 0.68
Ni 1.45
O 0.68
loop_
_atom_site_label
_atom_site_type_symbol
_atom_site_fract_x
_atom_site_fract_y
_atom_site_fract_z
Ni1 Ni 0.89867(2) 0.39867(2) 0.10133(2)
Mn1 Mn 0.85925(3) 0.36694(3) 0.22727(2)
O1 O 0.91985(10) 0.33496(11) 0.15734(11)
O2 O 0.81513(11) 0.31513(11) 0.18487(11)
O3 O 0.88482(12) 0.30782(11) 0.27801(11)
N1 N 0.90928(14) 0.42126(14) 0.26373(14)
O4 O 0.78138(12) 0.39450(11) 0.26693(11)
N2 N 0.97528(14) 0.42796(14) 0.13025(14)
C1 C 1.05420(18) 0.49101(18) 0.13434(19)
H1 H 1.06930 0.52680 0.12660
N3 N 0.99886(17) 0.39879(17) 0.30284(16)
C2 C 1.06302(17) 0.39743(18) 0.17065(17)
H2 H 1.08450 0.36910 0.18820
C3 C 1.00703(16) 0.38729(17) 0.15565(16)
C4 C 0.89680(17) 0.25574(18) 0.26648(19)
C5 C 0.99878(17) 0.47851(18) 0.12069(16)
H3 H 0.97660 0.50680 0.10390
N4 N 0.95494(15) 0.40833(15) 0.28341(17)
C6 C 0.91545(19) 0.22089(17) 0.31690(18)
H4 H 0.88270 0.21040 0.33910
H5 H 0.94100 0.24290 0.34000
H6 H 0.93450 0.18710 0.30380
C7 C 1.08670(18) 0.44978(18) 0.15948(18)
H7 H 1.12450 0.45710 0.16890
C8 C 0.97913(15) 0.33059(16) 0.16441(17)
H8 H 0.99430 0.30340 0.13720
H9 H 0.98750 0.31680 0.20250
Mn1J Mn 0.86694(3) 0.27273(3) 0.14075(2)
Mn1G Mn 0.77273(3) 0.35925(3) 0.13306(2)
O1G O 0.84266(10) 0.41985(11) 0.16504(11)
O1J O 0.83496(10) 0.34266(11) 0.08015(11)
O3J O 0.80782(12) 0.22199(11) 0.11518(11)
O3G O 0.72199(12) 0.38482(11) 0.19218(11)
N1G N 0.73627(14) 0.40928(14) 0.07874(14)
N1J N 0.92126(14) 0.23627(14) 0.09072(14)
O4J O 0.89450(12) 0.23307(11) 0.21862(11)
O4G O 0.73307(12) 0.28138(11) 0.10550(11)
N2G N 0.86975(14) 0.47528(14) 0.07204(14)
N2J N 0.92796(14) 0.36975(14) 0.02472(14)
C1G C 0.86566(18) 0.55420(18) 0.00899(19)
C1J C 0.99101(18) 0.36566(18) -0.05420(19)
H1G H 0.87340 0.56930 -0.02680
H1J H 1.02680 0.37340 -0.06930
N3G N 0.69716(17) 0.49886(17) 0.10121(16)
N3J N 0.89879(17) 0.19716(17) 0.00114(16)
C2G C 0.82935(17) 0.56302(18) 0.10257(17)
C2J C 0.89743(17) 0.32935(18) -0.06302(17)
H2G H 0.81180 0.58450 0.13090
H2J H 0.86910 0.31180 -0.08450
C3G C 0.84435(16) 0.50703(17) 0.11271(16)
C3J C 0.88729(16) 0.34435(17) -0.00703(16)
C4J C 0.75574(17) 0.23352(18) 0.10320(19)
C4G C 0.73352(17) 0.39680(18) 0.24426(19)
C5G C 0.87931(17) 0.49878(18) 0.02149(16)
C5J C 0.97851(17) 0.37931(18) 0.00122(16)
H3G H 0.89610 0.47660 -0.00680
H3J H 1.00680 0.39610 0.02340
N4G N 0.71659(15) 0.45494(15) 0.09167(17)
N4J N 0.90833(15) 0.21659(15) 0.04506(17)
C6G C 0.68310(19) 0.41545(17) 0.27911(18)
C6J C 0.72089(19) 0.18310(17) 0.08455(18)
H4G H 0.66090 0.38270 0.28960
H4J H 0.71040 0.16090 0.11730
H5G H 0.66000 0.44100 0.25710
H5J H 0.74290 0.16000 0.05900
H6G H 0.69620 0.43450 0.31290
H6J H 0.68710 0.19620 0.06550
C7G C 0.84052(18) 0.58670(18) 0.05022(18)
C7J C 0.94978(18) 0.34052(18) -0.08670(18)
H7G H 0.83110 0.62450 0.04290
H7J H 0.95710 0.33110 -0.12450
C8G C 0.83559(15) 0.47913(16) 0.16941(17)
C8J C 0.83059(15) 0.33559(16) 0.02087(17)
H8J H 0.80340 0.36280 0.00570
H8G H 0.86280 0.49430 0.19660
H9J H 0.81680 0.29750 0.01250
H9G H 0.79750 0.48750 0.18320
#END

data_CSD_CIF_MOFSAB
_audit_creation_date 2002-08-21
_audit_creation_method CSD-ConQuest-V1
_database_code_CSD MOFSAB
_database_code_depnum_ccdc_archive 'CCDC 170212'
_chemical_formula_sum 'C44 H38 Cl4 Mn4 N8 O9'
_chemical_formula_moiety
;
C44 H36 Cl4 Mn4 N8 O8,H2 O1
;
_journal_coden_Cambridge 186
_journal_year 2002
_journal_page_first 1727
_journal_name_full 'J.Chem.Soc.,Dalton Trans. '
loop_
_publ_author_name
"Ming-Liang Tong"
"Shao-Liang Zheng"
"Jian-Xin Shi"
"Ye-Xiang Tong"
"Hung Kay Lee"
"Xiao-Ming Chen"
_chemical_name_systematic
;
tetrakis(\m~3~-Hydroxybis(2-pyridyl)methanolato)-tetrachloro-tetra-manganese(i
i) monohydrate
;
_cell_volume  14325.890
_exptl_crystal_colour 'colorless'
_exptl_crystal_density_diffrn 1.647
_exptl_crystal_description 'polyhedral'
_diffrn_ambient_temperature 293
#These two values have been output from a single CSD field.
_refine_ls_R_factor_gt 0.0468
_refine_ls_wR_factor_gt 0.0468
_symmetry_cell_setting cubic
_symmetry_space_group_name_H-M 'I -4 3 d'
_symmetry_Int_Tables_number 220
loop_
_symmetry_equiv_pos_site_id
_symmetry_equiv_pos_as_xyz
1 x,y,z
2 1/2-x,-y,1/2+z
3 -x,1/2+y,1/2-z
4 1/2+x,1/2-y,-z
5 z,x,y
6 1/2+z,1/2-x,-y
7 1/2-z,-x,1/2+y
8 -z,1/2+x,1/2-y
9 y,z,x
10 -y,1/2+z,1/2-x
11 1/2+y,1/2-z,-x
12 1/2-y,-z,1/2+x
13 1/4+y,1/4+x,1/4+z
14 1/4-y,-1/4-x,-1/4+z
15 -1/4+y,1/4-x,-1/4-z
16 -1/4-y,-1/4+x,1/4-z
17 1/4+x,1/4+z,1/4+y
18 -1/4-x,-1/4+z,1/4-y
19 1/4-x,-1/4-z,-1/4+y
20 -1/4+x,1/4-z,-1/4-y
21 1/4+z,1/4+y,1/4+x
22 -1/4+z,1/4-y,-1/4-x
23 -1/4-z,-1/4+y,1/4-x
24 1/4-z,-1/4-y,-1/4+x
25 1/2+x,1/2+y,1/2+z
26 -x,1/2-y,z
27 1/2-x,y,-z
28 x,-y,1/2-z
29 1/2+z,1/2+x,1/2+y
30 z,-x,1/2-y
31 -z,1/2-x,y
32 1/2-z,x,-y
33 1/2+y,1/2+z,1/2+x
34 1/2-y,z,-x
35 y,-z,1/2-x
36 -y,1/2-z,x
37 -1/4+y,-1/4+x,-1/4+z
38 -1/4-y,1/4-x,1/4+z
39 1/4+y,-1/4-x,1/4-z
40 1/4-y,1/4+x,-1/4-z
41 -1/4+x,-1/4+z,-1/4+y
42 1/4-x,1/4+z,-1/4-y
43 -1/4-x,1/4-z,1/4+y
44 1/4+x,-1/4-z,1/4-y
45 -1/4+z,-1/4+y,-1/4+x
46 1/4+z,-1/4-y,1/4-x
47 1/4-z,1/4+y,-1/4-x
48 -1/4-z,1/4-y,1/4+x
_cell_length_a 24.287(6)
_cell_length_b 24.287(6)
_cell_length_c 24.287(6)
_cell_angle_alpha 90
_cell_angle_beta 90
_cell_angle_gamma 90
_cell_formula_units_Z 12
loop_
_atom_type_symbol
_atom_type_radius_bond
C 0.68
H 0.23
Cl 0.99
Mn 1.35
N 0.68
O 0.68
loop_
_atom_site_label
_atom_site_type_symbol
_atom_site_fract_x
_atom_site_fract_y
_atom_site_fract_z
Mn1 Mn 1.00306(4) 0.82017(3) 0.67284(3)
Cl1 Cl 0.96390(11) 0.91287(9) 0.66928(10)
N1 N 0.96785(19) 0.80630(18) 0.75664(19)
N2 N 1.0878(2) 0.8427(2) 0.69982(19)
O1 O 0.94180(13) 0.75612(14) 0.66616(12)
O2 O 0.85810(15) 0.79212(16) 0.68999(16)
H1 H 0.83870 0.78210 0.66020
C1 C 0.9881(3) 0.8275(3) 0.8027(2)
H2 H 1.01940 0.85140 0.80020
C2 C 0.9637(3) 0.8181(3) 0.8535(3)
H3 H 0.98090 0.83180 0.88640
C3 C 0.9171(3) 0.7876(3) 0.8560(3)
H4 H 0.89910 0.78200 0.89080
C4 C 0.8959(3) 0.7669(3) 0.8091(3)
H5 H 0.86310 0.74490 0.81030
C5 C 0.9222(2) 0.7767(2) 0.7592(2)
C6 C 0.9009(2) 0.7555(3) 0.7042(2)
C7 C 1.1225(2) 0.8019(3) 0.7098(2)
C8 C 1.1759(3) 0.8113(3) 0.7219(3)
H6 H 1.20040 0.78110 0.72920
C9 C 1.1949(3) 0.8664(3) 0.7232(3)
H7 H 1.23250 0.87550 0.73170
C10 C 1.1591(3) 0.9077(3) 0.7130(3)
H8 H 1.17080 0.94540 0.71420
C11 C 1.1062(3) 0.8952(3) 0.7016(3)
H9 H 1.08120 0.92480 0.69400
O3 O 1.0037(6) 1.00000 0.75000
H10 H 0.98490 0.99330 0.71400
C6Y C 1.0991(2) 0.7445(3) 0.7042(2)
O1Y O 1.05820(13) 0.74388(14) 0.66616(12)
Mn1Y Mn 0.99694(4) 0.67983(3) 0.67284(3)
Cl1Y Cl 1.03610(11) 0.58713(9) 0.66928(10)
N1Y N 1.03215(19) 0.69370(18) 0.75664(19)
C1Y C 1.0119(3) 0.6725(3) 0.8027(2)
H2Y H 0.98060 0.64860 0.80020
C2Y C 1.0363(3) 0.6819(3) 0.8535(3)
H3Y H 1.01910 0.66820 0.88640
C3Y C 1.0829(3) 0.7124(3) 0.8560(3)
H4Y H 1.10090 0.71800 0.89080
C4Y C 1.1041(3) 0.7331(3) 0.8091(3)
H5Y H 1.13690 0.75510 0.81030
C5Y C 1.0778(2) 0.7233(2) 0.7592(2)
O2Y O 1.14190(15) 0.70788(16) 0.68999(16)
H1Y H 1.16130 0.71790 0.66020
N2Y N 0.9122(2) 0.6573(2) 0.69982(19)
C7Y C 0.8775(2) 0.6981(3) 0.7098(2)
C8Y C 0.8241(3) 0.6887(3) 0.7219(3)
H6Y H 0.79960 0.71890 0.72920
C9Y C 0.8051(3) 0.6336(3) 0.7232(3)
H7Y H 0.76750 0.62450 0.73170
C10Y C 0.8409(3) 0.5923(3) 0.7130(3)
H8Y H 0.82920 0.55460 0.71420
C11Y C 0.8938(3) 0.6048(3) 0.7016(3)
H9Y H 0.91880 0.57520 0.69400
Mn1O Mn 0.92983(4) 0.75306(3) 0.57716(3)
Cl1O Cl 0.83713(11) 0.71390(9) 0.58072(10)
N1O N 0.94370(19) 0.71785(18) 0.49336(19)
C1O C 0.9225(3) 0.7381(3) 0.4473(2)
H2O H 0.89860 0.76940 0.44980
C2O C 0.9319(3) 0.7137(3) 0.3965(3)
H3O H 0.91820 0.73090 0.36360
C3O C 0.9624(3) 0.6671(3) 0.3940(3)
H4O H 0.96800 0.64910 0.35920
C4O C 0.9831(3) 0.6459(3) 0.4409(3)
H5O H 1.00510 0.61310 0.43970
C5O C 0.9733(2) 0.6722(2) 0.4908(2)
C6O C 0.9945(2) 0.6509(3) 0.5458(2)
O1O O 0.99388(13) 0.69180(14) 0.58384(12)
N2O N 0.9073(2) 0.8378(2) 0.55018(19)
C7O C 0.9481(2) 0.8725(3) 0.5402(2)
C6LA C 1.0055(2) 0.8491(3) 0.5458(2)
O1LA O 1.00612(13) 0.80820(14) 0.58384(12)
Mn1LA Mn 1.07017(4) 0.74694(3) 0.57716(3)
Cl1LA Cl 1.16287(11) 0.78610(9) 0.58072(10)
N1LA N 1.05630(19) 0.78215(18) 0.49336(19)
C1LA C 1.0775(3) 0.7619(3) 0.4473(2)
H2LA H 1.10140 0.73060 0.44980
C2LA C 1.0681(3) 0.7863(3) 0.3965(3)
H3LA H 1.08180 0.76910 0.36360
C3LA C 1.0376(3) 0.8329(3) 0.3940(3)
H4LA H 1.03200 0.85090 0.35920
C4LA C 1.0169(3) 0.8541(3) 0.4409(3)
H5LA H 0.99490 0.88690 0.43970
C5LA C 1.0267(2) 0.8278(2) 0.4908(2)
O2LA O 1.04212(15) 0.89190(16) 0.56001(16)
H1LA H 1.03210 0.91130 0.58980
N2LA N 1.0927(2) 0.6622(2) 0.55018(19)
C7LA C 1.0519(2) 0.6275(3) 0.5402(2)
O2O O 0.95788(15) 0.60810(16) 0.56001(16)
H1O H 0.96790 0.58870 0.58980
C8LA C 1.0613(3) 0.5741(3) 0.5281(3)
H6LA H 1.03110 0.54960 0.52080
C9LA C 1.1164(3) 0.5551(3) 0.5268(3)
H7LA H 1.12550 0.51750 0.51830
C10LA C 1.1577(3) 0.5909(3) 0.5370(3)
H8LA H 1.19540 0.57920 0.53580
C11LA C 1.1452(3) 0.6438(3) 0.5484(3)
H9LA H 1.17480 0.66880 0.55600
C8O C 0.9387(3) 0.9259(3) 0.5281(3)
H6O H 0.96890 0.95040 0.52080
C9O C 0.8836(3) 0.9449(3) 0.5268(3)
H7O H 0.87450 0.98250 0.51830
C10O C 0.8423(3) 0.9091(3) 0.5370(3)
H8O H 0.80460 0.92080 0.53580
C11O C 0.8548(3) 0.8562(3) 0.5484(3)
H9O H 0.82520 0.83120 0.55600
H10AA H 0.98490 1.00670 0.78600
#END

data_CSD_CIF_MUMCAZ
_audit_creation_date 2010-06-29
_audit_creation_method CSD-ConQuest-V1
_database_code_CSD MUMCAZ
_database_code_depnum_ccdc_archive 'CCDC 603698'
_chemical_formula_sum 'C44 H36 Cd4 Cl4 N8 O8'
_chemical_formula_moiety
;
C44 H36 Cd4 Cl4 N8 O8
;
_journal_coden_Cambridge 1115
_journal_volume 31
_journal_year 2008
_journal_page_first 99
_journal_name_full 'Main Group Met.Chem. '
loop_
_publ_author_name
"Xin-Jun Wang"
"Seik Weng Ng"
_chemical_name_systematic
;
tetrakis(\m~3~-Hydroxybis(2-pyridyl)methanolato-N,N',O,O,O)-tetrachloro-tetra-
cadmium(ii)
;
_cell_volume  14754.799
_exptl_crystal_colour 'colorless'
_exptl_crystal_density_diffrn 1.886
_exptl_special_details
;
Isostructural with the tetra-manganese analogue

;
_exptl_crystal_description 'prism'
_diffrn_ambient_temperature 295
#These two values have been output from a single CSD field.
_refine_ls_R_factor_gt 0.047
_refine_ls_wR_factor_gt 0.047
_symmetry_cell_setting cubic
_symmetry_space_group_name_H-M 'I -4 3 d'
_symmetry_Int_Tables_number 220
loop_
_symmetry_equiv_pos_site_id
_symmetry_equiv_pos_as_xyz
1 x,y,z
2 1/2-x,-y,1/2+z
3 -x,1/2+y,1/2-z
4 1/2+x,1/2-y,-z
5 z,x,y
6 1/2+z,1/2-x,-y
7 1/2-z,-x,1/2+y
8 -z,1/2+x,1/2-y
9 y,z,x
10 -y,1/2+z,1/2-x
11 1/2+y,1/2-z,-x
12 1/2-y,-z,1/2+x
13 1/4+y,1/4+x,1/4+z
14 1/4-y,3/4-x,3/4+z
15 3/4+y,1/4-x,3/4-z
16 3/4-y,3/4+x,1/4-z
17 1/4+x,1/4+z,1/4+y
18 3/4-x,3/4+z,1/4-y
19 1/4-x,3/4-z,3/4+y
20 3/4+x,1/4-z,3/4-y
21 1/4+z,1/4+y,1/4+x
22 3/4+z,1/4-y,3/4-x
23 3/4-z,3/4+y,1/4-x
24 1/4-z,3/4-y,3/4+x
25 1/2+x,1/2+y,1/2+z
26 -x,1/2-y,z
27 1/2-x,y,-z
28 x,-y,1/2-z
29 1/2+z,1/2+x,1/2+y
30 z,-x,1/2-y
31 -z,1/2-x,y
32 1/2-z,x,-y
33 1/2+y,1/2+z,1/2+x
34 1/2-y,z,-x
35 y,-z,1/2-x
36 -y,1/2-z,x
37 3/4+y,3/4+x,3/4+z
38 3/4-y,1/4-x,1/4+z
39 1/4+y,3/4-x,1/4-z
40 1/4-y,1/4+x,3/4-z
41 3/4+x,3/4+z,3/4+y
42 1/4-x,1/4+z,3/4-y
43 3/4-x,1/4-z,1/4+y
44 1/4+x,3/4-z,1/4-y
45 3/4+z,3/4+y,3/4+x
46 1/4+z,3/4-y,1/4-x
47 1/4-z,1/4+y,3/4-x
48 3/4-z,1/4-y,1/4+x
_cell_length_a 24.527(1)
_cell_length_b 24.527(1)
_cell_length_c 24.527(1)
_cell_angle_alpha 90
_cell_angle_beta 90
_cell_angle_gamma 90
_cell_formula_units_Z 12
loop_
_atom_type_symbol
_atom_type_radius_bond
C 0.68
H 0.23
Cd 1.44
Cl 0.99
N 0.68
O 0.68
loop_
_atom_site_label
_atom_site_type_symbol
_atom_site_fract_x
_atom_site_fract_y
_atom_site_fract_z
Cd1 Cd 0.49889(3) 0.17563(2) 0.17541(2)
O1 O 0.55971(19) 0.2459(2) 0.16721(19)
O2 O 0.6440(2) 0.2111(2) 0.1912(2)
H1 H 0.65770 0.22050 0.16210
N1 N 0.5373(3) 0.1949(3) 0.2603(3)
N2 N 0.4097(3) 0.1543(3) 0.2004(3)
C1 C 0.5181(4) 0.1759(4) 0.3072(3)
H2 H 0.48830 0.15250 0.30630
C2 C 0.5404(4) 0.1894(5) 0.3570(4)
H3 H 0.52520 0.17640 0.38930
C3 C 0.5847(4) 0.2219(4) 0.3578(4)
H4 H 0.60080 0.23170 0.39070
C4 C 0.6058(4) 0.2403(4) 0.3093(3)
H5 H 0.63670 0.26230 0.30930
C5 C 0.5820(3) 0.2268(3) 0.2621(3)
C6 C 0.6012(3) 0.2477(4) 0.2050(3)
C7 C 0.3748(3) 0.1950(3) 0.2085(3)
C8 C 0.3198(4) 0.1856(4) 0.2191(4)
H6 H 0.29620 0.21440 0.22600
C9 C 0.3015(4) 0.1330(5) 0.2189(4)
H7 H 0.26500 0.12590 0.22600
C10 C 0.3359(5) 0.0910(4) 0.2084(4)
H8 H 0.32320 0.05530 0.20710
C11 C 0.3893(4) 0.1023(4) 0.1999(4)
H9 H 0.41310 0.07350 0.19350
Cl1 Cl 0.52892(11) 0.07778(10) 0.17143(11)
Cd1Y Cd 0.50111(3) 0.32437(2) 0.17541(2)
Cd1LA Cd 0.42563(3) 0.25111(2) 0.07459(2)
Cd1O Cd 0.57437(3) 0.24889(2) 0.07459(2)
O1Y O 0.44029(19) 0.2541(2) 0.16721(19)
O1LA O 0.49590(19) 0.19029(20) 0.08279(19)
O1O O 0.50410(19) 0.30971(20) 0.08279(19)
O2LA O 0.4611(2) 0.1060(2) 0.0588(2)
O2Y O 0.3560(2) 0.2889(2) 0.1912(2)
O2O O 0.5389(2) 0.3940(2) 0.0588(2)
H1LA H 0.47050 0.09230 0.08790
H1Y H 0.34230 0.27950 0.16210
H1O H 0.52950 0.40770 0.08790
N1LA N 0.4449(3) 0.2127(3) -0.0103(3)
N1Y N 0.4627(3) 0.3051(3) 0.2603(3)
N1O N 0.5551(3) 0.2873(3) -0.0103(3)
N2Y N 0.5903(3) 0.3457(3) 0.2004(3)
N2O N 0.5957(3) 0.1597(3) 0.0496(3)
N2LA N 0.4043(3) 0.3403(3) 0.0496(3)
C1O C 0.5741(4) 0.2681(4) -0.0572(3)
C1Y C 0.4819(4) 0.3241(4) 0.3072(3)
C1LA C 0.4259(4) 0.2319(4) -0.0572(3)
H2O H 0.59750 0.23830 -0.05630
H2Y H 0.51170 0.34750 0.30630
H2LA H 0.40250 0.26170 -0.05630
C2O C 0.5606(4) 0.2904(5) -0.1070(4)
C2Y C 0.4596(4) 0.3106(5) 0.3570(4)
C2LA C 0.4394(4) 0.2096(5) -0.1070(4)
H3O H 0.57360 0.27520 -0.13930
H3Y H 0.47480 0.32360 0.38930
H3LA H 0.42640 0.22480 -0.13930
C3O C 0.5281(4) 0.3347(4) -0.1078(4)
C3Y C 0.4153(4) 0.2781(4) 0.3578(4)
C3LA C 0.4719(4) 0.1653(4) -0.1078(4)
H4O H 0.51830 0.35080 -0.14070
H4Y H 0.39920 0.26830 0.39070
H4LA H 0.48170 0.14920 -0.14070
C4O C 0.5097(4) 0.3558(4) -0.0593(3)
C4Y C 0.3942(4) 0.2597(4) 0.3093(3)
C4LA C 0.4903(4) 0.1442(4) -0.0593(3)
H5O H 0.48770 0.38670 -0.05930
H5Y H 0.36330 0.23770 0.30930
H5LA H 0.51230 0.11330 -0.05930
C5LA C 0.4768(3) 0.1680(3) -0.0121(3)
C5Y C 0.4180(3) 0.2732(3) 0.2621(3)
C5O C 0.5232(3) 0.3320(3) -0.0121(3)
C6LA C 0.4977(3) 0.1488(4) 0.0450(3)
C6Y C 0.3988(3) 0.2523(4) 0.2050(3)
C6O C 0.5023(3) 0.3512(4) 0.0450(3)
C7Y C 0.6252(3) 0.3050(3) 0.2085(3)
C7O C 0.5550(3) 0.1248(3) 0.0415(3)
C7LA C 0.4450(3) 0.3752(3) 0.0415(3)
C8Y C 0.6802(4) 0.3144(4) 0.2191(4)
C8O C 0.5644(4) 0.0698(4) 0.0309(4)
C8LA C 0.4356(4) 0.4302(4) 0.0309(4)
H6Y H 0.70380 0.28560 0.22600
H6O H 0.53560 0.04620 0.02400
H6LA H 0.46440 0.45380 0.02400
C9Y C 0.6985(4) 0.3670(5) 0.2189(4)
C9O C 0.6170(4) 0.0515(5) 0.0311(4)
C9LA C 0.3830(4) 0.4485(5) 0.0311(4)
H7Y H 0.73500 0.37410 0.22600
H7O H 0.62410 0.01500 0.02400
H7LA H 0.37590 0.48500 0.02400
C10Y C 0.6641(5) 0.4090(4) 0.2084(4)
C10O C 0.6590(5) 0.0859(4) 0.0416(4)
C10LA C 0.3410(5) 0.4141(4) 0.0416(4)
H8Y H 0.67680 0.44470 0.20710
H8O H 0.69470 0.07320 0.04290
H8LA H 0.30530 0.42680 0.04290
C11Y C 0.6107(4) 0.3977(4) 0.1999(4)
C11O C 0.6477(4) 0.1393(4) 0.0501(4)
C11LA C 0.3523(4) 0.3607(4) 0.0501(4)
H9Y H 0.58690 0.42650 0.19350
H9O H 0.67650 0.16310 0.05650
H9LA H 0.32350 0.33690 0.05650
Cl1Y Cl 0.47108(11) 0.42222(10) 0.17143(11)
Cl1O Cl 0.67222(11) 0.27892(10) 0.07857(11)
Cl1LA Cl 0.32778(11) 0.22108(10) 0.07857(11)
#END

data_CSD_CIF_MURROH
_audit_creation_date 2010-11-12
_audit_creation_method CSD-ConQuest-V1
_database_code_CSD MURROH
_database_code_depnum_ccdc_archive 'CCDC 725456'
_chemical_formula_sum 'C21 H37 B1 Cl1 N9 Zn1'
_chemical_formula_moiety
;
C21 H37 B1 Cl1 N9 Zn1
;
_journal_coden_Cambridge 155
_journal_volume 363
_journal_year 2010
_journal_page_first 2163
_journal_name_full 'Inorg.Chim.Acta '
loop_
_publ_author_name
"J.L.Bongiovanni"
"B.W.Rowe"
"P.T.Fadden"
"M.T.Taylor"
"K.R.Wells"
"M.Kumar"
"E.T.Papish"
"G.P.A.Yap"
"M.Zeller"
_chemical_name_systematic
;
chloro-(hydrogen tris(3-t-butyl-5-methyl-1,2,4-triazol-1-yl)borate)-zinc(ii)
;
_cell_volume  10706.186
_exptl_crystal_colour 'colorless'
_exptl_crystal_density_diffrn 1.308
_exptl_special_details
;
cubic polymorph

;
_exptl_crystal_description 'block'
_exptl_crystal_preparation 'diethyl ether'
_diffrn_ambient_temperature 120
#These two values have been output from a single CSD field.
_refine_ls_R_factor_gt 0.0382
_refine_ls_wR_factor_gt 0.0382
_symmetry_cell_setting cubic
_symmetry_space_group_name_H-M 'I -4 3 d'
_symmetry_Int_Tables_number 220
loop_
_symmetry_equiv_pos_site_id
_symmetry_equiv_pos_as_xyz
1 x,y,z
2 1/2-x,-y,1/2+z
3 -x,1/2+y,1/2-z
4 1/2+x,1/2-y,-z
5 z,x,y
6 1/2+z,1/2-x,-y
7 1/2-z,-x,1/2+y
8 -z,1/2+x,1/2-y
9 y,z,x
10 -y,1/2+z,1/2-x
11 1/2+y,1/2-z,-x
12 1/2-y,-z,1/2+x
13 1/4+y,1/4+x,1/4+z
14 1/4-y,3/4-x,3/4+z
15 3/4+y,1/4-x,3/4-z
16 3/4-y,3/4+x,1/4-z
17 1/4+x,1/4+z,1/4+y
18 3/4-x,3/4+z,1/4-y
19 1/4-x,3/4-z,3/4+y
20 3/4+x,1/4-z,3/4-y
21 1/4+z,1/4+y,1/4+x
22 3/4+z,1/4-y,3/4-x
23 3/4-z,3/4+y,1/4-x
24 1/4-z,3/4-y,3/4+x
25 1/2+x,1/2+y,1/2+z
26 -x,1/2-y,z
27 1/2-x,y,-z
28 x,-y,1/2-z
29 1/2+z,1/2+x,1/2+y
30 z,-x,1/2-y
31 -z,1/2-x,y
32 1/2-z,x,-y
33 1/2+y,1/2+z,1/2+x
34 1/2-y,z,-x
35 y,-z,1/2-x
36 -y,1/2-z,x
37 3/4+y,3/4+x,3/4+z
38 3/4-y,1/4-x,1/4+z
39 1/4+y,3/4-x,1/4-z
40 1/4-y,1/4+x,3/4-z
41 3/4+x,3/4+z,3/4+y
42 1/4-x,1/4+z,3/4-y
43 3/4-x,1/4-z,1/4+y
44 1/4+x,3/4-z,1/4-y
45 3/4+z,3/4+y,3/4+x
46 1/4+z,3/4-y,1/4-x
47 1/4-z,1/4+y,3/4-x
48 3/4-z,1/4-y,1/4+x
_cell_length_a 22.040(3)
_cell_length_b 22.040(3)
_cell_length_c 22.040(3)
_cell_angle_alpha 90
_cell_angle_beta 90
_cell_angle_gamma 90
_cell_formula_units_Z 16
loop_
_atom_type_symbol
_atom_type_radius_bond
C 0.68
H 0.23
B 0.83
Cl 0.99
N 0.68
Zn 1.22
loop_
_atom_site_label
_atom_site_type_symbol
_atom_site_fract_x
_atom_site_fract_y
_atom_site_fract_z
Zn1 Zn -0.030123(14) 0.469877(14) 0.030123(14)
Cl1 Cl -0.08704(3) 0.41296(3) 0.08704(3)
N1 N 0.06274(9) 0.47135(10) 0.03708(10)
N2 N 0.08777(10) 0.50711(10) -0.00815(10)
N3 N 0.16371(9) 0.4631(1) 0.03944(10)
B1 B 0.04811(13) 0.54811(13) -0.04811(13)
H1 H 0.0781(13) 0.5781(13) -0.0781(13)
C1 C 0.11061(12) 0.44621(12) 0.06445(12)
C2 C 0.14781(12) 0.50020(12) -0.00567(13)
C3 C 0.10522(14) 0.40246(13) 0.11680(13)
C4 C 0.07693(14) 0.34308(14) 0.09396(15)
H2 H 0.03610 0.35120 0.07830
H3 H 0.07450 0.31400 0.12750
H4 H 0.10220 0.32620 0.06150
C5 C 0.06608(13) 0.42907(13) 0.16756(13)
H5 H 0.08370 0.46750 0.18130
H6 H 0.06450 0.40050 0.20160
H7 H 0.02490 0.43630 0.15230
C6 C 0.16888(14) 0.38943(15) 0.14114(15)
H8 H 0.18650 0.42690 0.15730
H9 H 0.19450 0.37400 0.10820
H10 H 0.16640 0.35900 0.17350
C7 C 0.19042(12) 0.52925(13) -0.04940(12)
H11 H 0.22800 0.50560 -0.05130
H12 H 0.19960 0.57060 -0.03590
H13 H 0.17170 0.53060 -0.08970
N1G N -0.03708(9) 0.56274(10) 0.02865(10)
N1J N -0.02865(9) 0.46292(10) -0.06274(10)
N2G N 0.00815(10) 0.58777(10) -0.00711(10)
N2J N 0.00711(10) 0.50815(10) -0.08777(10)
N3G N -0.03944(9) 0.66371(10) 0.0369(1)
N3J N -0.03690(9) 0.46056(10) -0.16371(10)
C1G C -0.06445(12) 0.61061(12) 0.05379(12)
C1J C -0.05379(12) 0.43555(12) -0.11061(12)
C2G C 0.00567(12) 0.64781(12) -0.00020(13)
C2J C 0.00020(12) 0.50567(12) -0.14781(13)
C3G C -0.11680(14) 0.60522(13) 0.09754(13)
C3J C -0.09754(14) 0.38320(13) -0.10522(13)
C4G C -0.09396(14) 0.57693(14) 0.15692(15)
C4J C -0.15692(14) 0.40604(14) -0.07693(15)
H2G H -0.07830 0.53610 0.14880
H2J H -0.14880 0.42170 -0.03610
H3G H -0.12750 0.57450 0.18600
H3J H -0.18600 0.37250 -0.07450
H4G H -0.06150 0.60220 0.17380
H4J H -0.17380 0.43850 -0.10220
C5G C -0.16756(13) 0.56608(13) 0.07093(13)
C5J C -0.07093(13) 0.33244(13) -0.06608(13)
H5G H -0.18130 0.58370 0.03250
H5J H -0.03250 0.31870 -0.08370
H6G H -0.20160 0.56450 0.09950
H6J H -0.09950 0.29840 -0.06450
H7G H -0.15230 0.52490 0.06370
H7J H -0.06370 0.34770 -0.02490
C6G C -0.14114(14) 0.66888(15) 0.11057(15)
C6J C -0.11057(14) 0.35886(15) -0.16888(15)
H8G H -0.15730 0.68650 0.07310
H8J H -0.07310 0.34270 -0.18650
H9G H -0.10820 0.69450 0.12600
H9J H -0.12600 0.39180 -0.19450
H10G H -0.17350 0.66640 0.14100
H10J H -0.14100 0.32650 -0.16640
C7G C 0.04940(12) 0.69042(13) -0.02925(12)
C7J C 0.02925(12) 0.54940(13) -0.19042(12)
H11G H 0.05130 0.72800 -0.00560
H11J H 0.00560 0.55130 -0.22800
H12G H 0.03590 0.69960 -0.07060
H12J H 0.07060 0.53590 -0.19960
H13G H 0.08970 0.67170 -0.03060
H13J H 0.03060 0.58970 -0.17170
#END

data_CSD_CIF_MURSAU
_audit_creation_date 2010-11-12
_audit_creation_method CSD-ConQuest-V1
_database_code_CSD MURSAU
_database_code_depnum_ccdc_archive 'CCDC 725458'
_chemical_formula_sum 'C21 H37 B1 Br1 N9 Zn1'
_chemical_formula_moiety
;
C21 H37 B1 Br1 N9 Zn1
;
_journal_coden_Cambridge 155
_journal_volume 363
_journal_year 2010
_journal_page_first 2163
_journal_name_full 'Inorg.Chim.Acta '
loop_
_publ_author_name
"J.L.Bongiovanni"
"B.W.Rowe"
"P.T.Fadden"
"M.T.Taylor"
"K.R.Wells"
"M.Kumar"
"E.T.Papish"
"G.P.A.Yap"
"M.Zeller"
_chemical_name_systematic
;
bromo-(hydrogen tris(3-t-butyl-5-methyl-1,2,4-triazol-1-yl)borate)-zinc(ii)
;
_cell_volume  10789.466
_exptl_crystal_colour 'colorless'
_exptl_crystal_density_diffrn 1.408
_exptl_crystal_description 'block'
_diffrn_ambient_temperature 120
#These two values have been output from a single CSD field.
_refine_ls_R_factor_gt 0.0414
_refine_ls_wR_factor_gt 0.0414
_symmetry_cell_setting cubic
_symmetry_space_group_name_H-M 'I -4 3 d'
_symmetry_Int_Tables_number 220
loop_
_symmetry_equiv_pos_site_id
_symmetry_equiv_pos_as_xyz
1 x,y,z
2 1/2-x,-y,1/2+z
3 -x,1/2+y,1/2-z
4 1/2+x,1/2-y,-z
5 z,x,y
6 1/2+z,1/2-x,-y
7 1/2-z,-x,1/2+y
8 -z,1/2+x,1/2-y
9 y,z,x
10 -y,1/2+z,1/2-x
11 1/2+y,1/2-z,-x
12 1/2-y,-z,1/2+x
13 1/4+y,1/4+x,1/4+z
14 1/4-y,3/4-x,3/4+z
15 3/4+y,1/4-x,3/4-z
16 3/4-y,3/4+x,1/4-z
17 1/4+x,1/4+z,1/4+y
18 3/4-x,3/4+z,1/4-y
19 1/4-x,3/4-z,3/4+y
20 3/4+x,1/4-z,3/4-y
21 1/4+z,1/4+y,1/4+x
22 3/4+z,1/4-y,3/4-x
23 3/4-z,3/4+y,1/4-x
24 1/4-z,3/4-y,3/4+x
25 1/2+x,1/2+y,1/2+z
26 -x,1/2-y,z
27 1/2-x,y,-z
28 x,-y,1/2-z
29 1/2+z,1/2+x,1/2+y
30 z,-x,1/2-y
31 -z,1/2-x,y
32 1/2-z,x,-y
33 1/2+y,1/2+z,1/2+x
34 1/2-y,z,-x
35 y,-z,1/2-x
36 -y,1/2-z,x
37 3/4+y,3/4+x,3/4+z
38 3/4-y,1/4-x,1/4+z
39 1/4+y,3/4-x,1/4-z
40 1/4-y,1/4+x,3/4-z
41 3/4+x,3/4+z,3/4+y
42 1/4-x,1/4+z,3/4-y
43 3/4-x,1/4-z,1/4+y
44 1/4+x,3/4-z,1/4-y
45 3/4+z,3/4+y,3/4+x
46 1/4+z,3/4-y,1/4-x
47 1/4-z,1/4+y,3/4-x
48 3/4-z,1/4-y,1/4+x
_cell_length_a 22.097(2)
_cell_length_b 22.097(2)
_cell_length_c 22.097(2)
_cell_angle_alpha 90
_cell_angle_beta 90
_cell_angle_gamma 90
_cell_formula_units_Z 16
loop_
_atom_type_symbol
_atom_type_radius_bond
C 0.68
H 0.23
B 0.83
Br 1.21
N 0.68
Zn 1.22
loop_
_atom_site_label
_atom_site_type_symbol
_atom_site_fract_x
_atom_site_fract_y
_atom_site_fract_z
Zn1 Zn 0.47005(2) 0.52995(2) 0.02995(2)
Br1 Br 0.41050(2) 0.58950(2) 0.08950(2)
N1 N 0.56282(15) 0.52864(15) 0.03722(14)
N2 N 0.58734(15) 0.49295(14) -0.00824(14)
N3 N 0.66368(15) 0.53703(15) 0.03941(15)
B1 B 0.5481(2) 0.4519(2) -0.0481(2)
H1 H 0.57420 0.42580 -0.07420
C1 C 0.61059(18) 0.55361(17) 0.06460(18)
C2 C 0.64799(17) 0.50006(18) -0.00597(18)
C3 C 0.69024(19) 0.4712(2) -0.04942(19)
H2 H 0.72770 0.49490 -0.05160
H3 H 0.67140 0.46970 -0.08960
H4 H 0.69950 0.43000 -0.03590
C4 C 0.6054(2) 0.59750(19) 0.11717(18)
C5 C 0.5775(2) 0.6567(2) 0.0943(2)
H5 H 0.60210 0.67290 0.06120
H6 H 0.57620 0.68620 0.12750
H7 H 0.53630 0.64900 0.07980
C6 C 0.6694(2) 0.6099(2) 0.1413(2)
H8 H 0.69530 0.62360 0.10800
H9 H 0.68610 0.57260 0.15870
H10 H 0.66760 0.64130 0.17260
C7 C 0.5671(2) 0.5699(2) 0.16811(19)
H11 H 0.58260 0.52960 0.17810
H12 H 0.52490 0.56670 0.15480
H13 H 0.56940 0.59590 0.20400
N1F N 0.46278(15) 0.43718(15) 0.02864(14)
N1I N 0.47136(15) 0.53722(15) -0.06282(14)
N2F N 0.50824(15) 0.41266(14) -0.00705(14)
N2I N 0.50705(15) 0.49176(14) -0.08734(14)
N3F N 0.46059(15) 0.33632(15) 0.03703(15)
N3I N 0.46297(15) 0.53941(15) -0.16368(15)
C1F C 0.43540(18) 0.38941(17) 0.05361(18)
C1I C 0.44639(18) 0.56460(17) -0.11059(18)
C2F C 0.50597(17) 0.35201(18) 0.00006(18)
C2I C 0.49994(17) 0.49403(18) -0.14799(18)
C3F C 0.54942(19) 0.30976(20) -0.02880(19)
C3I C 0.52880(19) 0.45058(20) -0.19024(19)
H2F H 0.55160 0.27230 -0.00510
H2I H 0.50510 0.44840 -0.22770
H3F H 0.58960 0.32860 -0.03030
H3I H 0.53030 0.41040 -0.17140
H4F H 0.53590 0.30050 -0.07000
H4I H 0.57000 0.46410 -0.19950
C4F C 0.38283(20) 0.39460(19) 0.09750(18)
C4I C 0.4025(2) 0.61717(19) -0.10540(18)
C5F C 0.4057(2) 0.4225(2) 0.1567(2)
C5I C 0.3433(2) 0.5943(2) -0.0775(2)
H5F H 0.43880 0.39790 0.17290
H5I H 0.32710 0.56120 -0.10210
H6F H 0.37250 0.42380 0.18620
H6I H 0.31380 0.62750 -0.07620
H7F H 0.42020 0.46370 0.14900
H7I H 0.35100 0.57980 -0.03630
C6F C 0.3587(2) 0.3306(2) 0.1099(2)
C6I C 0.3901(2) 0.6413(2) -0.1694(2)
H8F H 0.39200 0.30470 0.12360
H8I H 0.37640 0.60800 -0.19530
H9F H 0.34130 0.31390 0.07260
H9I H 0.42740 0.65870 -0.18610
H10F H 0.32740 0.33240 0.14130
H10I H 0.35870 0.67260 -0.16760
C7F C 0.33189(20) 0.4329(2) 0.06990(19)
C7I C 0.4301(2) 0.66811(20) -0.06710(19)
H11F H 0.32190 0.41740 0.02960
H11I H 0.47040 0.67810 -0.08260
H12F H 0.34520 0.47510 0.06670
H12I H 0.43330 0.65480 -0.02490
H13F H 0.29600 0.43060 0.09590
H13I H 0.40410 0.70400 -0.06940
#END

data_CSD_CIF_NARWIN
_audit_creation_date 2005-09-27
_audit_creation_method CSD-ConQuest-V1
_database_code_CSD NARWIN
_database_code_depnum_ccdc_archive 'CCDC 257989'
_chemical_formula_sum 'C27 H39 I1 U1'
_chemical_formula_moiety
;
C27 H39 I1 U1
;
_journal_coden_Cambridge 9
_journal_volume 44
_journal_year 2005
_journal_page_first 3993
_journal_name_full 'Inorg.Chem. '
loop_
_publ_author_name
"W.J.Evans"
"S.A.Kozimor"
"J.W.Ziller"
"A.A.Fagin"
"M.N.Bochkarev"
_chemical_name_systematic
;
Iodo-tris(\h^5^-tetramethyl-cyclopentadienyl)-uranium
;
_cell_volume   9936.156
_exptl_crystal_colour 'ruby'
_exptl_crystal_density_diffrn 1.948
_exptl_special_details
;
air- and moisture-sensitive
isomorphous with the chloride analogue

;
_exptl_crystal_description 'hexagon'
_exptl_crystal_preparation 'toluene'
_diffrn_ambient_temperature 158
#These two values have been output from a single CSD field.
_refine_ls_R_factor_gt 0.0184
_refine_ls_wR_factor_gt 0.0184
_symmetry_cell_setting cubic
_symmetry_space_group_name_H-M 'I -4 3 d'
_symmetry_Int_Tables_number 220
loop_
_symmetry_equiv_pos_site_id
_symmetry_equiv_pos_as_xyz
1 x,y,z
2 1/2-x,-y,1/2+z
3 -x,1/2+y,1/2-z
4 1/2+x,1/2-y,-z
5 z,x,y
6 1/2+z,1/2-x,-y
7 1/2-z,-x,1/2+y
8 -z,1/2+x,1/2-y
9 y,z,x
10 -y,1/2+z,1/2-x
11 1/2+y,1/2-z,-x
12 1/2-y,-z,1/2+x
13 1/4+y,1/4+x,1/4+z
14 1/4-y,3/4-x,3/4+z
15 3/4+y,1/4-x,3/4-z
16 3/4-y,3/4+x,1/4-z
17 1/4+x,1/4+z,1/4+y
18 3/4-x,3/4+z,1/4-y
19 1/4-x,3/4-z,3/4+y
20 3/4+x,1/4-z,3/4-y
21 1/4+z,1/4+y,1/4+x
22 3/4+z,1/4-y,3/4-x
23 3/4-z,3/4+y,1/4-x
24 1/4-z,3/4-y,3/4+x
25 1/2+x,1/2+y,1/2+z
26 -x,1/2-y,z
27 1/2-x,y,-z
28 x,-y,1/2-z
29 1/2+z,1/2+x,1/2+y
30 z,-x,1/2-y
31 -z,1/2-x,y
32 1/2-z,x,-y
33 1/2+y,1/2+z,1/2+x
34 1/2-y,z,-x
35 y,-z,1/2-x
36 -y,1/2-z,x
37 3/4+y,3/4+x,3/4+z
38 3/4-y,1/4-x,1/4+z
39 1/4+y,3/4-x,1/4-z
40 1/4-y,1/4+x,3/4-z
41 3/4+x,3/4+z,3/4+y
42 1/4-x,1/4+z,3/4-y
43 3/4-x,1/4-z,1/4+y
44 1/4+x,3/4-z,1/4-y
45 3/4+z,3/4+y,3/4+x
46 1/4+z,3/4-y,1/4-x
47 1/4-z,1/4+y,3/4-x
48 3/4-z,1/4-y,1/4+x
_cell_length_a 21.4984(10)
_cell_length_b 21.4984(10)
_cell_length_c 21.4984(10)
_cell_angle_alpha 90
_cell_angle_beta 90
_cell_angle_gamma 90
_cell_formula_units_Z 16
loop_
_atom_type_symbol
_atom_type_radius_bond
C 0.68
H 0.23
I 1.40
U 1.92
loop_
_atom_site_label
_atom_site_type_symbol
_atom_site_fract_x
_atom_site_fract_y
_atom_site_fract_z
U1 U 0.969203(6) 0.969203(6) 0.969203(6)
I1 I 1.050676(12) 1.050676(12) 1.050676(12)
C1 C 1.01361(18) 0.88971(19) 0.87826(18)
C2 C 1.06006(18) 0.88039(18) 0.92374(19)
C3 C 1.09352(19) 0.93625(19) 0.9314(2)
C4 C 1.0691(2) 0.98118(19) 0.8898(2)
C5 C 1.01993(19) 0.9523(2) 0.85715(19)
C6 C 0.9730(2) 0.8411(2) 0.8500(2)
H1 H 0.94520 0.86040 0.81940
H2 H 0.94820 0.82110 0.88260
H3 H 0.99890 0.80980 0.82920
C7 C 1.0814(2) 0.8175(2) 0.9468(2)
H4 H 1.05010 0.78600 0.93630
H5 H 1.08700 0.81890 0.99200
H6 H 1.12100 0.80670 0.92690
C8 C 1.1523(2) 0.9440(2) 0.9686(3)
H7 H 1.16630 0.98730 0.96600
H8 H 1.18460 0.91660 0.95190
H9 H 1.14420 0.93330 1.01220
C9 C 1.0963(2) 1.0435(2) 0.8767(2)
H10 H 1.12960 1.05210 0.90650
H11 H 1.06390 1.07530 0.88050
H12 H 1.11330 1.04400 0.83440
H13 H 0.997(2) 0.969(2) 0.826(2)
C1D C 0.87826(18) 1.01361(19) 0.88971(18)
C1H C 0.88971(18) 0.87826(19) 1.01361(18)
C2D C 0.92374(18) 1.06006(18) 0.88039(19)
C2H C 0.88039(18) 0.92374(18) 1.06006(19)
C3D C 0.93140(19) 1.09352(19) 0.93625(20)
C3H C 0.93625(19) 0.93140(19) 1.09352(20)
C4D C 0.8898(2) 1.06910(19) 0.98118(20)
C4H C 0.98118(20) 0.88980(19) 1.0691(2)
C5D C 0.85715(19) 1.01993(20) 0.95230(19)
C5H C 0.95230(19) 0.85715(20) 1.01993(19)
C6D C 0.8500(2) 0.9730(2) 0.8411(2)
C6H C 0.8411(2) 0.8500(2) 0.9730(2)
H1D H 0.81940 0.94520 0.86040
H1H H 0.86040 0.81940 0.94520
H2D H 0.88260 0.94820 0.82110
H2H H 0.82110 0.88260 0.94820
H3D H 0.82920 0.99890 0.80980
H3H H 0.80980 0.82920 0.99890
C7D C 0.9468(2) 1.0814(2) 0.8175(2)
C7H C 0.8175(2) 0.9468(2) 1.0814(2)
H4D H 0.93630 1.05010 0.78600
H4H H 0.78600 0.93630 1.05010
H5D H 0.99200 1.08700 0.81890
H5H H 0.81890 0.99200 1.08700
H6D H 0.92690 1.12100 0.80670
H6H H 0.80670 0.92690 1.12100
C8H C 0.9440(2) 0.9686(2) 1.1523(3)
C8D C 0.9686(2) 1.1523(2) 0.9440(3)
H7H H 0.98730 0.96600 1.16630
H7D H 0.96600 1.16630 0.98730
H8H H 0.91660 0.95190 1.18460
H8D H 0.95190 1.18460 0.91660
H9H H 0.93330 1.01220 1.14420
H9D H 1.01220 1.14420 0.93330
C9D C 0.8767(2) 1.0963(2) 1.0435(2)
C9H C 1.0435(2) 0.8767(2) 1.0963(2)
H10D H 0.90650 1.12960 1.05210
H10H H 1.05210 0.90650 1.12960
H11D H 0.88050 1.06390 1.07530
H11H H 1.07530 0.88050 1.06390
H12D H 0.83440 1.11330 1.04400
H12H H 1.04400 0.83440 1.11330
H13D H 0.826(2) 0.997(2) 0.969(2)
H13H H 0.969(2) 0.826(2) 0.997(2)
#END

data_CSD_CIF_NEDPUI
_audit_creation_date 2006-04-06
_audit_creation_method CSD-ConQuest-V1
_database_code_CSD NEDPUI
_database_code_depnum_ccdc_archive 'CCDC 265976 (not 265979 as published)'
_chemical_formula_sum 'C12 H20 Cl2 Cu1 N4 O4'
_chemical_formula_moiety
;
C12 H20 Cl2 Cu1 N4 O4
;
_journal_coden_Cambridge 155
_journal_volume 359
_journal_year 2006
_journal_page_first 364
_journal_name_full 'Inorg.Chim.Acta '
loop_
_publ_author_name
"K.B.Girma"
"V.Lorenz"
"S.Blaurock"
"F.T.Edelmann"
_chemical_name_systematic
;
tetrakis(Acrylamide-O)-dichloro-copper(ii)
;
_cell_volume   5669.269
_exptl_crystal_colour 'yellow'
_exptl_crystal_density_diffrn 1.472
_exptl_crystal_description 'platelet'
_exptl_crystal_preparation 'acetonitrile'
_diffrn_ambient_temperature 293
#These two values have been output from a single CSD field.
_refine_ls_R_factor_gt 0.0176
_refine_ls_wR_factor_gt 0.0176
_symmetry_cell_setting cubic
_symmetry_space_group_name_H-M 'I -4 3 d'
_symmetry_Int_Tables_number 220
loop_
_symmetry_equiv_pos_site_id
_symmetry_equiv_pos_as_xyz
1 x,y,z
2 1/2-x,-y,1/2+z
3 -x,1/2+y,1/2-z
4 1/2+x,1/2-y,-z
5 z,x,y
6 1/2+z,1/2-x,-y
7 1/2-z,-x,1/2+y
8 -z,1/2+x,1/2-y
9 y,z,x
10 -y,1/2+z,1/2-x
11 1/2+y,1/2-z,-x
12 1/2-y,-z,1/2+x
13 1/4+y,1/4+x,1/4+z
14 1/4-y,3/4-x,3/4+z
15 3/4+y,1/4-x,3/4-z
16 3/4-y,3/4+x,1/4-z
17 1/4+x,1/4+z,1/4+y
18 3/4-x,3/4+z,1/4-y
19 1/4-x,3/4-z,3/4+y
20 3/4+x,1/4-z,3/4-y
21 1/4+z,1/4+y,1/4+x
22 3/4+z,1/4-y,3/4-x
23 3/4-z,3/4+y,1/4-x
24 1/4-z,3/4-y,3/4+x
25 1/2+x,1/2+y,1/2+z
26 -x,1/2-y,z
27 1/2-x,y,-z
28 x,-y,1/2-z
29 1/2+z,1/2+x,1/2+y
30 z,-x,1/2-y
31 -z,1/2-x,y
32 1/2-z,x,-y
33 1/2+y,1/2+z,1/2+x
34 1/2-y,z,-x
35 y,-z,1/2-x
36 -y,1/2-z,x
37 3/4+y,3/4+x,3/4+z
38 3/4-y,1/4-x,1/4+z
39 1/4+y,3/4-x,1/4-z
40 1/4-y,1/4+x,3/4-z
41 3/4+x,3/4+z,3/4+y
42 1/4-x,1/4+z,3/4-y
43 3/4-x,1/4-z,1/4+y
44 1/4+x,3/4-z,1/4-y
45 3/4+z,3/4+y,3/4+x
46 1/4+z,3/4-y,1/4-x
47 1/4-z,1/4+y,3/4-x
48 3/4-z,1/4-y,1/4+x
_cell_length_a 17.8310(2)
_cell_length_b 17.8310(2)
_cell_length_c 17.8310(2)
_cell_angle_alpha 90
_cell_angle_beta 90
_cell_angle_gamma 90
_cell_formula_units_Z 12
loop_
_atom_type_symbol
_atom_type_radius_bond
C 0.68
H 0.23
Cl 0.99
Cu 1.52
N 0.68
O 0.68
loop_
_atom_site_label
_atom_site_type_symbol
_atom_site_fract_x
_atom_site_fract_y
_atom_site_fract_z
Cu1 Cu 1.00000 0.25000 0.87500
Cl1 Cl 1.00000 0.25000 1.02594(2)
O1 O 0.88891(5) 0.23686(5) 0.87880(6)
N1 N 0.87000(9) 0.14292(8) 0.79619(9)
C1 C 0.84658(8) 0.18994(8) 0.84742(9)
C2 C 0.76639(8) 0.18661(11) 0.86627(11)
C3 C 0.73284(11) 0.23890(15) 0.90585(14)
H1 H 0.8446(15) 0.1088(13) 0.7815(12)
H2 H 0.9135(13) 0.1436(12) 0.7805(11)
H3 H 0.7463(19) 0.1562(17) 0.8522(19)
H4 H 0.7624(15) 0.2781(13) 0.9242(12)
H5 H 0.6779(19) 0.232(2) 0.9151(16)
Cl1N Cl 1.00000 0.25000 0.72406(2)
O1N O 0.98686(5) 0.36109(5) 0.87120(6)
O1Y O 1.11109(5) 0.26314(5) 0.87880(6)
O1MA O 1.01314(5) 0.13891(5) 0.87120(6)
N1N N 0.89292(9) 0.38000(8) 0.95381(9)
N1Y N 1.13000(9) 0.35708(8) 0.79619(9)
N1MA N 1.10708(9) 0.12000(8) 0.95381(9)
C1N C 0.93994(8) 0.40342(8) 0.90258(9)
C1Y C 1.15342(8) 0.31006(8) 0.84742(9)
C1MA C 1.06006(8) 0.09658(8) 0.90258(9)
C2N C 0.93661(8) 0.48361(11) 0.88373(11)
C2Y C 1.23361(8) 0.31339(11) 0.86627(11)
C2MA C 1.06339(8) 0.01639(11) 0.88373(11)
C3N C 0.98890(11) 0.51716(15) 0.84415(14)
C3Y C 1.26716(11) 0.26110(15) 0.90585(14)
C3MA C 1.01110(11) -0.01716(15) 0.84415(14)
H1N H 0.8588(15) 0.4054(13) 0.9685(12)
H1Y H 1.1554(15) 0.3912(13) 0.7815(12)
H1MA H 1.1412(15) 0.0946(13) 0.9685(12)
H2N H 0.8936(13) 0.3365(12) 0.9695(11)
H2Y H 1.0865(13) 0.3564(12) 0.7805(11)
H2MA H 1.1064(13) 0.1635(12) 0.9695(11)
H3N H 0.9062(19) 0.5037(17) 0.8978(19)
H3Y H 1.2537(19) 0.3438(17) 0.8522(19)
H3MA H 1.0938(19) -0.0037(17) 0.8978(19)
H4N H 1.0281(15) 0.4876(13) 0.8258(12)
H4Y H 1.2376(15) 0.2219(13) 0.9242(12)
H4MA H 0.9719(15) 0.0124(13) 0.8258(12)
H5N H 0.9820(19) 0.5721(20) 0.8349(16)
H5Y H 1.3221(19) 0.268(2) 0.9151(16)
H5MA H 1.0180(19) -0.0721(20) 0.8349(16)
#END

data_CSD_CIF_OTIWAR
_audit_creation_date 2016-08-22
_audit_creation_method CSD-ConQuest-V1
_database_code_CSD OTIWAR
_database_code_depnum_ccdc_archive 'CCDC 1472051'
_chemical_formula_sum 'C84 H84 Cu4 I4 P4'
_chemical_formula_moiety
;
C84 H84 Cu4 I4 P4
;
_journal_coden_Cambridge 9
_journal_volume 55
_journal_year 2016
_journal_page_first 7323
_journal_name_full 'Inorg.Chem. '
loop_
_publ_author_name
"Kai Yang"
"Shi-LiLi"
"Fu-Qiang Zhang"
"Xian-Ming Zhang"
_chemical_name_systematic
;
tetrakis(\m-iodo)-tetrakis(tris(m-tolyl)phosphine)-tetra-copper
;
_cell_volume  32482.523
_exptl_crystal_density_diffrn 1.619
_diffrn_ambient_temperature 293
#These two values have been output from a single CSD field.
_refine_ls_R_factor_gt 0.05
_refine_ls_wR_factor_gt 0.05
_symmetry_cell_setting cubic
_symmetry_space_group_name_H-M 'I -4 3 d'
_symmetry_Int_Tables_number 220
loop_
_symmetry_equiv_pos_site_id
_symmetry_equiv_pos_as_xyz
1 x,y,z
2 1/4+y,3/4-x,1/4-z
3 x,-y,1/2-z
4 z,x,y
5 -x,1/2-y,z
6 1/4+y,1/4+x,1/4+z
7 1/4-y,3/4-x,3/4+z
8 1/4-z,1/4+y,3/4-x
9 1/4+x,3/4-z,1/4-y
10 1/2-z,x,-y
11 z,-x,1/2-y
12 y,z,x
13 3/4-y,3/4+x,1/4-z
14 -x,1/2+y,1/2-z
15 -z,1/2-x,y
16 1/4+z,1/4+y,1/4+x
17 1/4+x,1/4+z,1/4+y
18 1/4-z,3/4-y,3/4+x
19 1/4-x,3/4-z,3/4+y
20 1/4+z,3/4-y,1/4-x
21 -y,1/2-z,x
22 y,-z,1/2-x
23 1/2-y,z,-x
24 3/4-x,3/4+z,1/4-y
25 1/2+x,1/2+y,1/2+z
26 3/4+y,1/4-x,3/4-z
27 1/2+x,1/2-y,-z
28 1/2+z,1/2+x,1/2+y
29 1/2-x,-y,1/2+z
30 3/4+y,3/4+x,3/4+z
31 3/4-y,1/4-x,1/4+z
32 3/4-z,3/4+y,1/4-x
33 3/4+x,1/4-z,3/4-y
34 -z,1/2+x,1/2-y
35 1/2+z,1/2-x,-y
36 1/2+y,1/2+z,1/2+x
37 1/4-y,1/4+x,3/4-z
38 1/2-x,y,-z
39 1/2-z,-x,1/2+y
40 3/4+z,3/4+y,3/4+x
41 3/4+x,3/4+z,3/4+y
42 3/4-z,1/4-y,1/4+x
43 3/4-x,1/4-z,1/4+y
44 3/4+z,1/4-y,3/4-x
45 1/2-y,-z,1/2+x
46 1/2+y,1/2-z,-x
47 -y,1/2+z,1/2-x
48 1/4-x,1/4+z,3/4-y
_cell_length_a 31.9068(5)
_cell_length_b 31.9068(5)
_cell_length_c 31.9068(5)
_cell_angle_alpha 90
_cell_angle_beta 90
_cell_angle_gamma 90
_cell_formula_units_Z 16
loop_
_atom_type_symbol
_atom_type_radius_bond
C 0.68
H 0.23
Cu 1.32
I 1.40
P 1.05
loop_
_atom_site_label
_atom_site_type_symbol
_atom_site_fract_x
_atom_site_fract_y
_atom_site_fract_z
Cu1 Cu 0.59147(6) 0.53292(5) 0.50900(5)
Cu2 Cu 0.60014(5) 0.60014(5) 0.60014(5)
I1 I 0.50952(3) 0.50952(3) 0.50952(3)
I2 I 0.61788(3) 0.51643(3) 0.58789(3)
P1 P 0.62888(10) 0.50696(11) 0.45537(10)
P2 P 0.64097(10) 0.64097(10) 0.64097(10)
C1 C 0.6082(4) 0.5188(4) 0.4034(3)
C2 C 0.5652(4) 0.5236(4) 0.3988(4)
H1 H 0.54800 0.52100 0.42220
C3 C 0.5472(4) 0.5324(4) 0.3592(5)
C4 C 0.5729(5) 0.5364(5) 0.3255(5)
H2 H 0.56150 0.54250 0.29940
C5 C 0.6159(5) 0.5314(5) 0.3296(4)
H3 H 0.63310 0.53370 0.30620
C6 C 0.6331(4) 0.5231(4) 0.3678(4)
H4 H 0.66200 0.52040 0.37010
C7 C 0.4992(5) 0.5362(5) 0.3560(5)
H5 H 0.48770 0.51000 0.34670
H6 H 0.49220 0.55780 0.33620
H7 H 0.48790 0.54320 0.38300
C8 C 0.6344(4) 0.4500(4) 0.4561(5)
C9 C 0.6305(4) 0.4266(4) 0.4213(6)
H8 H 0.62430 0.43880 0.39550
C10 C 0.6366(5) 0.3799(6) 0.4257(6)
C11 C 0.6467(6) 0.3670(6) 0.4637(5)
H9 H 0.65040 0.33820 0.46610
C12 C 0.6522(8) 0.3874(7) 0.4980(8)
H10 H 0.65990 0.37490 0.52320
C13 C 0.6452(7) 0.4312(7) 0.4932(7)
H11 H 0.64820 0.44820 0.51670
C14 C 0.6309(7) 0.3569(6) 0.3879(6)
H12 H 0.60170 0.35050 0.38430
H13 H 0.64660 0.33130 0.38930
H14 H 0.64050 0.37330 0.36460
C15 C 0.6821(4) 0.5261(5) 0.4511(4)
C16 C 0.6885(4) 0.5693(5) 0.4518(4)
H15 H 0.66570 0.58710 0.45530
C17 C 0.7280(5) 0.5860(6) 0.4473(4)
C18 C 0.7617(6) 0.5608(9) 0.4433(5)
H16 H 0.78840 0.57230 0.44070
C19 C 0.7567(6) 0.5186(8) 0.4429(6)
H17 H 0.78010 0.50140 0.44040
C20 C 0.7174(4) 0.5006(6) 0.4463(5)
H18 H 0.71440 0.47160 0.44540
C21 C 0.7318(7) 0.6338(7) 0.4474(6)
H19 H 0.71950 0.64490 0.42230
H20 H 0.76090 0.64150 0.44850
H21 H 0.71750 0.64500 0.47140
C22 C 0.6529(3) 0.6927(4) 0.6203(4)
C23 C 0.6607(4) 0.6964(4) 0.5776(4)
H22 H 0.65860 0.67300 0.56030
C24 C 0.6716(5) 0.7354(6) 0.5603(5)
C25 C 0.6752(5) 0.7687(6) 0.5860(7)
H23 H 0.68230 0.79450 0.57440
C26 C 0.6690(5) 0.7662(5) 0.6275(7)
H24 H 0.67230 0.78980 0.64430
C27 C 0.6575(5) 0.7280(4) 0.6453(5)
H25 H 0.65290 0.72620 0.67410
C28 C 0.6785(6) 0.7385(6) 0.5137(5)
H26 H 0.67950 0.71090 0.50180
H27 H 0.70440 0.75280 0.50830
H28 H 0.65580 0.75390 0.50120
C22C C 0.6203(3) 0.6529(4) 0.6927(4)
C23C C 0.5776(4) 0.6607(4) 0.6964(4)
H22C H 0.56030 0.65860 0.67300
C24C C 0.5603(5) 0.6716(6) 0.7354(5)
C25C C 0.5860(5) 0.6752(6) 0.7687(7)
H23C H 0.57440 0.68230 0.79450
C26C C 0.6275(5) 0.6690(5) 0.7662(7)
H24C H 0.64430 0.67230 0.78980
C27C C 0.6453(5) 0.6575(4) 0.7280(5)
H25C H 0.67410 0.65290 0.72620
C28C C 0.5137(6) 0.6785(6) 0.7385(5)
H26C H 0.50180 0.67950 0.71090
H27C H 0.50830 0.70440 0.75280
H28C H 0.50120 0.65580 0.75390
C22K C 0.6927(3) 0.6203(4) 0.6529(4)
C23K C 0.6964(4) 0.5776(4) 0.6607(4)
H22K H 0.67300 0.56030 0.65860
C24K C 0.7354(5) 0.5603(6) 0.6716(5)
C25K C 0.7687(5) 0.5860(6) 0.6752(7)
H23K H 0.79450 0.57440 0.68230
C26K C 0.7662(5) 0.6275(5) 0.6690(7)
H24K H 0.78980 0.64430 0.67230
C27K C 0.7280(5) 0.6453(4) 0.6575(5)
H25K H 0.72620 0.67410 0.65290
C28K C 0.7385(6) 0.5137(6) 0.6785(5)
H26K H 0.71090 0.50180 0.67950
H27K H 0.75280 0.50830 0.70440
H28K H 0.75390 0.50120 0.65580
Cu1C Cu 0.50900(6) 0.59147(5) 0.53292(5)
I2C I 0.58789(3) 0.61788(3) 0.51643(3)
P1C P 0.45537(10) 0.62888(11) 0.50696(10)
C1C C 0.4034(4) 0.6082(4) 0.5188(3)
C2C C 0.3988(4) 0.5652(4) 0.5236(4)
H1C H 0.42220 0.54800 0.52100
C3C C 0.3592(4) 0.5472(4) 0.5324(5)
C4C C 0.3255(5) 0.5729(5) 0.5364(5)
H2C H 0.29940 0.56150 0.54250
C5C C 0.3296(5) 0.6159(5) 0.5314(4)
H3C H 0.30620 0.63310 0.53370
C6C C 0.3678(4) 0.6331(4) 0.5231(4)
H4C H 0.37010 0.66200 0.52040
C7C C 0.3560(5) 0.4992(5) 0.5362(5)
H5C H 0.34670 0.48770 0.51000
H6C H 0.33620 0.49220 0.55780
H7C H 0.38300 0.48790 0.54320
C8C C 0.4561(4) 0.6344(4) 0.4500(5)
C9C C 0.4213(4) 0.6305(4) 0.4266(6)
H8C H 0.39550 0.62430 0.43880
C10C C 0.4257(5) 0.6366(6) 0.3799(6)
C11C C 0.4637(6) 0.6467(6) 0.3670(5)
H9C H 0.46610 0.65040 0.33820
C12C C 0.4980(8) 0.6522(7) 0.3874(8)
H10C H 0.52320 0.65990 0.37490
C13C C 0.4932(7) 0.6452(7) 0.4312(7)
H11C H 0.51670 0.64820 0.44820
C14C C 0.3879(7) 0.6309(6) 0.3569(6)
H12C H 0.38430 0.60170 0.35050
H13C H 0.38930 0.64660 0.33130
H14C H 0.36460 0.64050 0.37330
C15C C 0.4511(4) 0.6821(5) 0.5261(4)
C16C C 0.4518(4) 0.6885(5) 0.5693(4)
H15C H 0.45530 0.66570 0.58710
C17C C 0.4473(5) 0.7280(6) 0.5860(4)
C18C C 0.4433(6) 0.7617(9) 0.5608(5)
H16C H 0.44070 0.78840 0.57230
C19C C 0.4429(6) 0.7567(8) 0.5186(6)
H17C H 0.44040 0.78010 0.50140
C20C C 0.4463(4) 0.7174(6) 0.5006(5)
H18C H 0.44540 0.71440 0.47160
C21C C 0.4474(7) 0.7318(7) 0.6338(6)
H19C H 0.42230 0.71950 0.64490
H20C H 0.44850 0.76090 0.64150
H21C H 0.47140 0.71750 0.64500
Cu1K Cu 0.53292(6) 0.50900(5) 0.59147(5)
I2K I 0.51643(3) 0.58789(3) 0.61788(3)
P1K P 0.50696(10) 0.45537(11) 0.62888(10)
C1K C 0.5188(4) 0.4034(4) 0.6082(3)
C2K C 0.5236(4) 0.3988(4) 0.5652(4)
H1K H 0.52100 0.42220 0.54800
C3K C 0.5324(4) 0.3592(4) 0.5472(5)
C4K C 0.5364(5) 0.3255(5) 0.5729(5)
H2K H 0.54250 0.29940 0.56150
C5K C 0.5314(5) 0.3296(5) 0.6159(4)
H3K H 0.53370 0.30620 0.63310
C6K C 0.5231(4) 0.3678(4) 0.6331(4)
H4K H 0.52040 0.37010 0.66200
C7K C 0.5362(5) 0.3560(5) 0.4992(5)
H5K H 0.51000 0.34670 0.48770
H6K H 0.55780 0.33620 0.49220
H7K H 0.54320 0.38300 0.48790
C8K C 0.4500(4) 0.4561(4) 0.6344(5)
C9K C 0.4266(4) 0.4213(4) 0.6305(6)
H8K H 0.43880 0.39550 0.62430
C10K C 0.3799(5) 0.4257(6) 0.6366(6)
C11K C 0.3670(6) 0.4637(6) 0.6467(5)
H9K H 0.33820 0.46610 0.65040
C12K C 0.3874(8) 0.4980(7) 0.6522(8)
H10K H 0.37490 0.52320 0.65990
C13K C 0.4312(7) 0.4932(7) 0.6452(7)
H11K H 0.44820 0.51670 0.64820
C14K C 0.3569(7) 0.3879(6) 0.6309(6)
H12K H 0.35050 0.38430 0.60170
H13K H 0.33130 0.38930 0.64660
H14K H 0.37330 0.36460 0.64050
C15K C 0.5261(4) 0.4511(5) 0.6821(4)
C16K C 0.5693(4) 0.4518(5) 0.6885(4)
H15K H 0.58710 0.45530 0.66570
C17K C 0.5860(5) 0.4473(6) 0.7280(4)
C18K C 0.5608(6) 0.4433(9) 0.7617(5)
H16K H 0.57230 0.44070 0.78840
C19K C 0.5186(6) 0.4429(8) 0.7567(6)
H17K H 0.50140 0.44040 0.78010
C20K C 0.5006(4) 0.4463(6) 0.7174(5)
H18K H 0.47160 0.44540 0.71440
C21K C 0.6338(7) 0.4474(7) 0.7318(6)
H19K H 0.64490 0.42230 0.71950
H20K H 0.64150 0.44850 0.76090
H21K H 0.64500 0.47140 0.71750
#END

data_CSD_CIF_OTIWAR01
_audit_creation_date 2016-08-22
_audit_creation_method CSD-ConQuest-V1
_database_code_CSD OTIWAR01
_database_code_depnum_ccdc_archive 'CCDC 1472050'
_chemical_formula_sum 'C84 H84 Cu4 I4 P4'
_chemical_formula_moiety
;
C84 H84 Cu4 I4 P4
;
_journal_coden_Cambridge 9
_journal_volume 55
_journal_year 2016
_journal_page_first 7323
_journal_name_full 'Inorg.Chem. '
loop_
_publ_author_name
"Kai Yang"
"Shi-LiLi"
"Fu-Qiang Zhang"
"Xian-Ming Zhang"
_chemical_name_systematic
;
tetrakis(\m-iodo)-tetrakis(tris(m-tolyl)phosphine)-tetra-copper
;
_cell_volume  31583.293
_exptl_crystal_density_diffrn 1.665
_diffrn_ambient_temperature 100.2
#These two values have been output from a single CSD field.
_refine_ls_R_factor_gt 0.032
_refine_ls_wR_factor_gt 0.032
_symmetry_cell_setting cubic
_symmetry_space_group_name_H-M 'I -4 3 d'
_symmetry_Int_Tables_number 220
loop_
_symmetry_equiv_pos_site_id
_symmetry_equiv_pos_as_xyz
1 x,y,z
2 1/4+y,3/4-x,1/4-z
3 x,-y,1/2-z
4 z,x,y
5 -x,1/2-y,z
6 1/4+y,1/4+x,1/4+z
7 1/4-y,3/4-x,3/4+z
8 1/4-z,1/4+y,3/4-x
9 1/4+x,3/4-z,1/4-y
10 1/2-z,x,-y
11 z,-x,1/2-y
12 y,z,x
13 3/4-y,3/4+x,1/4-z
14 -x,1/2+y,1/2-z
15 -z,1/2-x,y
16 1/4+z,1/4+y,1/4+x
17 1/4+x,1/4+z,1/4+y
18 1/4-z,3/4-y,3/4+x
19 1/4-x,3/4-z,3/4+y
20 1/4+z,3/4-y,1/4-x
21 -y,1/2-z,x
22 y,-z,1/2-x
23 1/2-y,z,-x
24 3/4-x,3/4+z,1/4-y
25 1/2+x,1/2+y,1/2+z
26 3/4+y,1/4-x,3/4-z
27 1/2+x,1/2-y,-z
28 1/2+z,1/2+x,1/2+y
29 1/2-x,-y,1/2+z
30 3/4+y,3/4+x,3/4+z
31 3/4-y,1/4-x,1/4+z
32 3/4-z,3/4+y,1/4-x
33 3/4+x,1/4-z,3/4-y
34 -z,1/2+x,1/2-y
35 1/2+z,1/2-x,-y
36 1/2+y,1/2+z,1/2+x
37 1/4-y,1/4+x,3/4-z
38 1/2-x,y,-z
39 1/2-z,-x,1/2+y
40 3/4+z,3/4+y,3/4+x
41 3/4+x,3/4+z,3/4+y
42 3/4-z,1/4-y,1/4+x
43 3/4-x,1/4-z,1/4+y
44 3/4+z,1/4-y,3/4-x
45 1/2-y,-z,1/2+x
46 1/2+y,1/2-z,-x
47 -y,1/2+z,1/2-x
48 1/4-x,1/4+z,3/4-y
_cell_length_a 31.60961(19)
_cell_length_b 31.60961(19)
_cell_length_c 31.60961(19)
_cell_angle_alpha 90
_cell_angle_beta 90
_cell_angle_gamma 90
_cell_formula_units_Z 16
loop_
_atom_type_symbol
_atom_type_radius_bond
C 0.68
H 0.23
Cu 1.32
I 1.40
P 1.05
loop_
_atom_site_label
_atom_site_type_symbol
_atom_site_fract_x
_atom_site_fract_y
_atom_site_fract_z
Cu1 Cu 0.53341(4) 0.50969(3) 0.59104(3)
Cu2 Cu 0.60065(3) 0.60065(3) 0.60065(3)
I1 I 0.50916(2) 0.50916(2) 0.50916(2)
I2 I 0.51710(2) 0.58860(2) 0.61850(2)
P1 P 0.50690(6) 0.45609(6) 0.62889(5)
P2 P 0.64160(5) 0.64160(5) 0.64160(5)
C1 C 0.51859(19) 0.4032(2) 0.6085(2)
C2 C 0.5240(2) 0.3985(2) 0.5648(2)
H1 H 0.52200 0.42220 0.54740
C3 C 0.5324(2) 0.3586(2) 0.5465(2)
C4 C 0.5359(3) 0.3245(3) 0.5734(3)
H2 H 0.54180 0.29790 0.56210
C5 C 0.5310(3) 0.3288(2) 0.6170(2)
H3 H 0.53340 0.30520 0.63440
C6 C 0.5225(2) 0.3678(2) 0.6344(2)
H4 H 0.51940 0.37060 0.66350
C7 C 0.5366(3) 0.3548(3) 0.4987(2)
H5 H 0.50970 0.34730 0.48670
H6 H 0.55700 0.33320 0.49210
H7 H 0.54580 0.38130 0.48720
C8 C 0.4496(2) 0.4575(3) 0.6351(2)
C9 C 0.4253(3) 0.4217(4) 0.6307(2)
H8 H 0.43780 0.39580 0.62420
C10 C 0.3808(3) 0.4247(3) 0.6362(3)
C11 C 0.3642(3) 0.4635(3) 0.6466(3)
H9 H 0.33510 0.46560 0.65030
C12 C 0.3879(3) 0.4992(3) 0.6517(4)
H10 H 0.37520 0.52460 0.65930
C13 C 0.4309(3) 0.4970(3) 0.6453(4)
H11 H 0.44760 0.52110 0.64770
C14 C 0.3550(3) 0.3851(3) 0.6311(4)
H12 H 0.36660 0.36840 0.60860
H13 H 0.32630 0.39260 0.62450
H14 H 0.35570 0.36920 0.65700
C15 C 0.5263(3) 0.4523(2) 0.6831(2)
C16 C 0.5703(3) 0.4529(2) 0.6884(3)
H15 H 0.58790 0.45640 0.66500
C17 C 0.5876(4) 0.4482(2) 0.7279(3)
C18 C 0.5623(4) 0.4431(3) 0.7628(3)
H16 H 0.57450 0.43970 0.78940
C19 C 0.5191(4) 0.4432(3) 0.7585(3)
H17 H 0.50200 0.44040 0.78230
C20 C 0.5005(3) 0.4474(3) 0.7183(2)
H18 H 0.47120 0.44700 0.71540
C21 C 0.6363(4) 0.4475(4) 0.7313(4)
H19 H 0.64690 0.42160 0.71950
H20 H 0.64450 0.44940 0.76050
H21 H 0.64790 0.47110 0.71610
C22 C 0.6944(2) 0.6213(2) 0.65315(19)
C23 C 0.6985(2) 0.5776(2) 0.6606(2)
H22 H 0.67500 0.56020 0.65820
C24 C 0.7374(3) 0.5605(3) 0.6714(2)
C25 C 0.7724(3) 0.5874(3) 0.6750(3)
H23 H 0.79860 0.57610 0.68210
C26 C 0.7687(3) 0.6295(3) 0.6683(3)
H24 H 0.79230 0.64680 0.67120
C27 C 0.7298(2) 0.6473(3) 0.6572(3)
H25 H 0.72750 0.67630 0.65250
C28 C 0.7414(4) 0.5133(3) 0.6782(4)
H26 H 0.71410 0.50030 0.67540
H27 H 0.75230 0.50800 0.70600
H28 H 0.76030 0.50160 0.65750
C22C C 0.65315(20) 0.6944(2) 0.62130(19)
C23C C 0.6606(2) 0.6985(2) 0.5776(2)
H22C H 0.65820 0.67500 0.56020
C24C C 0.6714(3) 0.7374(3) 0.5605(2)
C25C C 0.6750(3) 0.7724(3) 0.5874(3)
H23C H 0.68210 0.79860 0.57610
C26C C 0.6683(3) 0.7687(3) 0.6295(3)
H24C H 0.67120 0.79230 0.64680
C27C C 0.6572(2) 0.7298(3) 0.6473(3)
H25C H 0.65250 0.72750 0.67630
C28C C 0.6782(4) 0.7414(3) 0.5133(4)
H26C H 0.67540 0.71410 0.50030
H27C H 0.70600 0.75230 0.50800
H28C H 0.65750 0.76030 0.50160
C22K C 0.6213(2) 0.65315(20) 0.69440(19)
C23K C 0.5776(2) 0.6606(2) 0.6985(2)
H22K H 0.56020 0.65820 0.67500
C24K C 0.5605(3) 0.6714(3) 0.7374(2)
C25K C 0.5874(3) 0.6750(3) 0.7724(3)
H23K H 0.57610 0.68210 0.79860
C26K C 0.6295(3) 0.6683(3) 0.7687(3)
H24K H 0.64680 0.67120 0.79230
C27K C 0.6473(2) 0.6572(3) 0.7298(3)
H25K H 0.67630 0.65250 0.72750
C28K C 0.5133(4) 0.6782(3) 0.7414(4)
H26K H 0.50030 0.67540 0.71410
H27K H 0.50800 0.70600 0.75230
H28K H 0.50160 0.65750 0.76030
Cu1C Cu 0.59104(4) 0.53341(3) 0.50969(3)
I2C I 0.61850(2) 0.51710(2) 0.58860(2)
P1C P 0.62889(6) 0.50690(6) 0.45609(5)
C1C C 0.60850(19) 0.51859(20) 0.4032(2)
C2C C 0.5648(2) 0.5240(2) 0.3985(2)
H1C H 0.54740 0.52200 0.42220
C3C C 0.5465(2) 0.5324(2) 0.3586(2)
C4C C 0.5734(3) 0.5359(3) 0.3245(3)
H2C H 0.56210 0.54180 0.29790
C5C C 0.6170(3) 0.5310(2) 0.3288(2)
H3C H 0.63440 0.53340 0.30520
C6C C 0.6344(2) 0.5225(2) 0.3678(2)
H4C H 0.66350 0.51940 0.37060
C7C C 0.4987(3) 0.5366(3) 0.3548(2)
H5C H 0.48670 0.50970 0.34730
H6C H 0.49210 0.55700 0.33320
H7C H 0.48720 0.54580 0.38130
C8C C 0.6351(2) 0.4496(3) 0.4575(2)
C9C C 0.6307(3) 0.4253(4) 0.4217(2)
H8C H 0.62420 0.43780 0.39580
C10C C 0.6362(3) 0.3808(3) 0.4247(3)
C11C C 0.6466(3) 0.3642(3) 0.4635(3)
H9C H 0.65030 0.33510 0.46560
C12C C 0.6517(3) 0.3879(3) 0.4992(4)
H10C H 0.65930 0.37520 0.52460
C13C C 0.6453(3) 0.4309(3) 0.4970(4)
H11C H 0.64770 0.44760 0.52110
C14C C 0.6311(3) 0.3550(3) 0.3851(4)
H12C H 0.60860 0.36660 0.36840
H13C H 0.62450 0.32630 0.39260
H14C H 0.65700 0.35570 0.36920
C15C C 0.6831(3) 0.5263(2) 0.4523(2)
C16C C 0.6884(3) 0.5703(2) 0.4529(3)
H15C H 0.66500 0.58790 0.45640
C17C C 0.7279(4) 0.5876(2) 0.4482(3)
C18C C 0.7628(4) 0.5623(3) 0.4431(3)
H16C H 0.78940 0.57450 0.43970
C19C C 0.7585(4) 0.5191(3) 0.4432(3)
H17C H 0.78230 0.50200 0.44040
C20C C 0.7183(3) 0.5005(3) 0.4474(2)
H18C H 0.71540 0.47120 0.44700
C21C C 0.7313(4) 0.6363(4) 0.4475(4)
H19C H 0.71950 0.64690 0.42160
H20C H 0.76050 0.64450 0.44940
H21C H 0.71610 0.64790 0.47110
Cu1K Cu 0.50969(4) 0.59104(3) 0.53341(3)
I2K I 0.58860(2) 0.61850(2) 0.51710(2)
P1K P 0.45609(6) 0.62889(6) 0.50690(5)
C1K C 0.40320(19) 0.6085(2) 0.51859(20)
C2K C 0.3985(2) 0.5648(2) 0.5240(2)
H1K H 0.42220 0.54740 0.52200
C3K C 0.3586(2) 0.5465(2) 0.5324(2)
C4K C 0.3245(3) 0.5734(3) 0.5359(3)
H2K H 0.29790 0.56210 0.54180
C5K C 0.3288(3) 0.6170(2) 0.5310(2)
H3K H 0.30520 0.63440 0.53340
C6K C 0.3678(2) 0.6344(2) 0.5225(2)
H4K H 0.37060 0.66350 0.51940
C7K C 0.3548(3) 0.4987(3) 0.5366(2)
H5K H 0.34730 0.48670 0.50970
H6K H 0.33320 0.49210 0.55700
H7K H 0.38130 0.48720 0.54580
C8K C 0.4575(2) 0.6351(3) 0.4496(2)
C9K C 0.4217(3) 0.6307(4) 0.4253(2)
H8K H 0.39580 0.62420 0.43780
C10K C 0.4247(3) 0.6362(3) 0.3808(3)
C11K C 0.4635(3) 0.6466(3) 0.3642(3)
H9K H 0.46560 0.65030 0.33510
C12K C 0.4992(3) 0.6517(3) 0.3879(4)
H10K H 0.52460 0.65930 0.37520
C13K C 0.4970(3) 0.6453(3) 0.4309(4)
H11K H 0.52110 0.64770 0.44760
C14K C 0.3851(3) 0.6311(3) 0.3550(4)
H12K H 0.36840 0.60860 0.36660
H13K H 0.39260 0.62450 0.32630
H14K H 0.36920 0.65700 0.35570
C15K C 0.4523(3) 0.6831(2) 0.5263(2)
C16K C 0.4529(3) 0.6884(2) 0.5703(3)
H15K H 0.45640 0.66500 0.58790
C17K C 0.4482(4) 0.7279(2) 0.5876(3)
C18K C 0.4431(4) 0.7628(3) 0.5623(3)
H16K H 0.43970 0.78940 0.57450
C19K C 0.4432(4) 0.7585(3) 0.5191(3)
H17K H 0.44040 0.78230 0.50200
C20K C 0.4474(3) 0.7183(3) 0.5005(2)
H18K H 0.44700 0.71540 0.47120
C21K C 0.4475(4) 0.7313(4) 0.6363(4)
H19K H 0.42160 0.71950 0.64690
H20K H 0.44940 0.76050 0.64450
H21K H 0.47110 0.71610 0.64790
#END

data_CSD_CIF_OTIWAR02
_audit_creation_date 2019-12-29
_audit_creation_method CSD-ConQuest-V1
_database_code_CSD OTIWAR02
_database_code_depnum_ccdc_archive 'CCDC 1974603'
_chemical_formula_sum 'C84 H84 Cu4 I4 P4'
_chemical_formula_moiety
;
C84 H84 Cu4 I4 P4
;
_journal_coden_Cambridge 1078
_journal_year 2019
_journal_name_full 'CSD Communication(Private Communication) '
loop_
_publ_author_name
"reng wang"
_chemical_name_systematic
;
tetrakis(\m-iodo)-tetrakis(tris(m-tolyl)phosphine)-tetra-copper
;
_cell_volume  32411.413
_exptl_crystal_colour 'colorless'
_exptl_crystal_density_diffrn 1.622
_exptl_special_details
;
diffusion

;
_exptl_crystal_description 'block'
_diffrn_ambient_temperature 293.8
#These two values have been output from a single CSD field.
_refine_ls_R_factor_gt 0.0469
_refine_ls_wR_factor_gt 0.0469
_symmetry_cell_setting cubic
_symmetry_space_group_name_H-M 'I -4 3 d'
_symmetry_Int_Tables_number 220
loop_
_symmetry_equiv_pos_site_id
_symmetry_equiv_pos_as_xyz
1 x,y,z
2 1/2-x,-y,1/2+z
3 -x,1/2+y,1/2-z
4 1/2+x,1/2-y,-z
5 z,x,y
6 1/2+z,1/2-x,-y
7 1/2-z,-x,1/2+y
8 -z,1/2+x,1/2-y
9 y,z,x
10 -y,1/2+z,1/2-x
11 1/2+y,1/2-z,-x
12 1/2-y,-z,1/2+x
13 1/4+y,1/4+x,1/4+z
14 1/4-y,3/4-x,3/4+z
15 3/4+y,1/4-x,3/4-z
16 3/4-y,3/4+x,1/4-z
17 1/4+x,1/4+z,1/4+y
18 3/4-x,3/4+z,1/4-y
19 1/4-x,3/4-z,3/4+y
20 3/4+x,1/4-z,3/4-y
21 1/4+z,1/4+y,1/4+x
22 3/4+z,1/4-y,3/4-x
23 3/4-z,3/4+y,1/4-x
24 1/4-z,3/4-y,3/4+x
25 1/2+x,1/2+y,1/2+z
26 -x,1/2-y,z
27 1/2-x,y,-z
28 x,-y,1/2-z
29 1/2+z,1/2+x,1/2+y
30 z,-x,1/2-y
31 -z,1/2-x,y
32 1/2-z,x,-y
33 1/2+y,1/2+z,1/2+x
34 1/2-y,z,-x
35 y,-z,1/2-x
36 -y,1/2-z,x
37 3/4+y,3/4+x,3/4+z
38 3/4-y,1/4-x,1/4+z
39 1/4+y,3/4-x,1/4-z
40 1/4-y,1/4+x,3/4-z
41 3/4+x,3/4+z,3/4+y
42 1/4-x,1/4+z,3/4-y
43 3/4-x,1/4-z,1/4+y
44 1/4+x,3/4-z,1/4-y
45 3/4+z,3/4+y,3/4+x
46 1/4+z,3/4-y,1/4-x
47 1/4-z,1/4+y,3/4-x
48 3/4-z,1/4-y,1/4+x
_cell_length_a 31.8835(7)
_cell_length_b 31.8835(7)
_cell_length_c 31.8835(7)
_cell_angle_alpha 90
_cell_angle_beta 90
_cell_angle_gamma 90
_cell_formula_units_Z 16
loop_
_atom_type_symbol
_atom_type_radius_bond
C 0.68
H 0.23
Cu 1.32
I 1.40
P 1.05
loop_
_atom_site_label
_atom_site_type_symbol
_atom_site_fract_x
_atom_site_fract_y
_atom_site_fract_z
I1 I 0.00939(2) 0.49061(2) 0.50939(2)
I2 I 0.01627(2) 0.41229(2) 0.61777(2)
Cu1 Cu 0.09998(4) 0.40002(4) 0.59998(4)
Cu2 Cu 0.03281(5) 0.49114(5) 0.59133(5)
P1 P 0.14080(9) 0.35920(9) 0.64080(9)
P2 P 0.00692(10) 0.54483(10) 0.62870(9)
C1 C 0.0009(5) 0.5539(4) 0.7175(4)
H1 H -0.02808 0.55549 0.71482
C2 C 0.0240(3) 0.6019(4) 0.5650(4)
H2 H 0.02191 0.57840 0.54782
C3 C 0.0188(3) 0.5969(3) 0.6078(4)
C4 C 0.0871(6) 0.5521(4) 0.7273(5)
C5 C 0.0695(5) 0.5474(4) 0.6882(4)
H3 H 0.08690 0.54324 0.66514
C6 C 0.0263(5) 0.5487(4) 0.6823(4)
C7 C 0.1531(3) 0.3070(3) 0.6209(4)
C8 C 0.0321(4) 0.6404(4) 0.5469(4)
C9 C -0.0499(4) 0.5439(5) 0.6350(4)
C10 C -0.0735(4) 0.5798(6) 0.6308(4)
H4 H -0.06144 0.60562 0.62472
C11 C 0.0621(7) 0.5569(5) 0.7610(6)
H5 H 0.07390 0.56035 0.78745
C12 C 0.0196(7) 0.5568(5) 0.7566(5)
H6 H 0.00279 0.55858 0.78040
C13 C 0.0227(4) 0.6322(4) 0.6329(4)
H7 H 0.01998 0.62951 0.66180
C14 C 0.0360(4) 0.6743(4) 0.5738(5)
H8 H 0.04260 0.70050 0.56273
C15 C 0.1335(6) 0.5516(6) 0.7316(6)
H9 H 0.14471 0.52790 0.71675
H10 H 0.14084 0.54948 0.76077
H11 H 0.14499 0.57695 0.72020
C16 C 0.1604(3) 0.3038(4) 0.5781(4)
H12 H 0.15811 0.32728 0.56100
C17 C -0.1198(6) 0.5747(5) 0.6365(4)
C18 C 0.1574(4) 0.2720(4) 0.6451(4)
H13 H 0.15309 0.27377 0.67391
C19 C 0.0305(4) 0.6706(4) 0.6163(5)
H14 H 0.03205 0.69403 0.63355
C20 C 0.1714(4) 0.2643(5) 0.5607(5)
C21 C 0.1752(5) 0.2313(5) 0.5864(6)
H15 H 0.18287 0.20553 0.57509
C22 C -0.1321(5) 0.5364(5) 0.6461(6)
H16 H -0.16105 0.53388 0.64878
C23 C 0.1682(5) 0.2340(4) 0.6275(6)
H17 H 0.17060 0.21028 0.64435
C24 C 0.0358(5) 0.6442(5) 0.4992(4)
H18 H 0.04489 0.61792 0.48772
H19 H 0.05578 0.66564 0.49236
H20 H 0.00894 0.65146 0.48766
C25 C -0.1425(6) 0.6120(5) 0.6311(6)
H21 H -0.12704 0.63496 0.64291
H22 H -0.16909 0.60957 0.64508
H23 H -0.14697 0.61683 0.60177
C26 C -0.1120(9) 0.5014(7) 0.6524(7)
H24 H -0.12434 0.47635 0.66093
C27 C 0.1792(5) 0.2618(6) 0.5131(5)
H25 H 0.15505 0.24985 0.49960
H26 H 0.20325 0.24455 0.50771
H27 H 0.18404 0.28947 0.50223
C28 C -0.0683(5) 0.5068(7) 0.6446(7)
H28 H -0.05122 0.48323 0.64611
C7E C 0.1209(3) 0.3469(3) 0.6930(4)
C16E C 0.0781(3) 0.3396(4) 0.6962(4)
H12E H 0.06100 0.34189 0.67272
C18E C 0.1451(4) 0.3426(4) 0.7280(4)
H13E H 0.17391 0.34691 0.72623
C20E C 0.0607(4) 0.3286(5) 0.7357(5)
C21E C 0.0864(5) 0.3248(5) 0.7687(6)
H15E H 0.07509 0.31713 0.79447
C23E C 0.1275(5) 0.3318(4) 0.7660(6)
H17E H 0.14435 0.32939 0.78972
C27E C 0.0131(5) 0.3208(6) 0.7382(5)
H25E H -0.00040 0.34495 0.75015
H26E H 0.00771 0.29675 0.75545
H27E H 0.00223 0.31596 0.71053
C7K C 0.1930(3) 0.3791(3) 0.6531(4)
C16K C 0.1962(3) 0.4219(4) 0.6604(4)
H12K H 0.17272 0.43900 0.65811
C18K C 0.2280(4) 0.3549(4) 0.6574(4)
H13K H 0.22623 0.32609 0.65309
C20K C 0.2357(4) 0.4393(5) 0.6714(5)
C21K C 0.2687(5) 0.4136(5) 0.6752(6)
H15K H 0.29447 0.42491 0.68287
C23K C 0.2660(5) 0.3725(4) 0.6682(6)
H17K H 0.28972 0.35565 0.67061
C27K C 0.2382(5) 0.4869(6) 0.6792(5)
H25K H 0.25015 0.50040 0.65505
H26K H 0.25545 0.49229 0.70325
H27K H 0.21053 0.49777 0.68404
I2E I 0.11777(2) 0.48373(2) 0.58771(2)
Cu2E Cu 0.09133(5) 0.46719(5) 0.50886(5)
P2E P 0.1287(1) 0.49308(10) 0.45517(9)
C1E C 0.2175(5) 0.4991(4) 0.4461(4)
H1E H 0.21482 0.52808 0.44451
C2E C 0.0650(3) 0.4760(4) 0.3981(4)
H2E H 0.04782 0.47809 0.42160
C3E C 0.1078(3) 0.4812(3) 0.4031(4)
C4E C 0.2273(6) 0.4129(4) 0.4479(5)
C5E C 0.1882(5) 0.4305(4) 0.4526(4)
H3E H 0.16514 0.41310 0.45676
C6E C 0.1823(5) 0.4737(4) 0.4513(4)
C8E C 0.0469(4) 0.4679(4) 0.3596(4)
C9E C 0.1350(4) 0.5499(5) 0.4561(4)
C10E C 0.1308(4) 0.5735(6) 0.4202(4)
H4E H 0.12472 0.56144 0.39438
C11E C 0.2610(7) 0.4379(5) 0.4431(6)
H5E H 0.28745 0.42610 0.43965
C12E C 0.2566(7) 0.4804(5) 0.4432(5)
H6E H 0.28040 0.49721 0.44142
C13E C 0.1329(4) 0.4773(4) 0.3678(4)
H7E H 0.16180 0.48002 0.37049
C14E C 0.0738(4) 0.4640(4) 0.3257(5)
H8E H 0.06273 0.45740 0.29950
C15E C 0.2316(6) 0.3665(6) 0.4484(6)
H9E H 0.21675 0.35529 0.47210
H10E H 0.26077 0.35916 0.45052
H11E H 0.22020 0.35501 0.42305
C17E C 0.1365(6) 0.6198(5) 0.4253(4)
C19E C 0.1163(4) 0.4695(4) 0.3294(5)
H14E H 0.13355 0.46795 0.30597
C22E C 0.1461(5) 0.6321(5) 0.4636(6)
H16E H 0.14878 0.66105 0.46612
C24E C -0.0008(5) 0.4642(5) 0.3558(4)
H18E H -0.01228 0.45511 0.38208
H19E H -0.00764 0.44422 0.33436
H20E H -0.01234 0.49106 0.34854
C25E C 0.1311(6) 0.6425(5) 0.3880(6)
H21E H 0.14291 0.62704 0.36504
H22E H 0.14508 0.66909 0.39043
H23E H 0.10177 0.64697 0.38317
C26E C 0.1524(9) 0.6120(7) 0.4986(7)
H24E H 0.16093 0.62434 0.52365
C28E C 0.1446(5) 0.5683(7) 0.4932(7)
H28E H 0.14611 0.55122 0.51677
I2K I 0.08771(2) 0.38223(2) 0.51627(2)
Cu2K Cu 0.00886(5) 0.40867(5) 0.53281(5)
P2K P -0.04483(10) 0.3713(1) 0.50692(9)
C1K C -0.0539(5) 0.2825(4) 0.5009(4)
H1K H -0.05549 0.28518 0.47192
C2K C -0.1019(3) 0.4350(4) 0.5240(4)
H2K H -0.07840 0.45218 0.52191
C3K C -0.0969(3) 0.3922(3) 0.5188(4)
C4K C -0.0521(6) 0.2727(4) 0.5871(5)
C5K C -0.0474(5) 0.3118(4) 0.5695(4)
H3K H -0.04324 0.33486 0.58690
C6K C -0.0487(5) 0.3177(4) 0.5263(4)
C8K C -0.1404(4) 0.4531(4) 0.5321(4)
C9K C -0.0439(4) 0.3650(5) 0.4501(4)
C10K C -0.0798(4) 0.3692(6) 0.4265(4)
H4K H -0.10562 0.37528 0.43856
C11K C -0.0569(7) 0.2390(5) 0.5621(6)
H5K H -0.06035 0.21255 0.57390
C12K C -0.0568(7) 0.2434(5) 0.5196(5)
H6K H -0.05858 0.21960 0.50279
C13K C -0.1322(4) 0.3671(4) 0.5227(4)
H7K H -0.12951 0.33820 0.51998
C14K C -0.1743(4) 0.4262(4) 0.5360(5)
H8K H -0.20050 0.43727 0.54260
C15K C -0.0516(6) 0.2684(6) 0.6335(6)
H9K H -0.02790 0.28325 0.64471
H10K H -0.04948 0.23923 0.64084
H11K H -0.07695 0.27980 0.64499
C17K C -0.0747(6) 0.3635(5) 0.3802(4)
C19K C -0.1706(4) 0.3837(4) 0.5305(5)
H14K H -0.19403 0.36645 0.53205
C22K C -0.0364(5) 0.3539(5) 0.3679(6)
H16K H -0.03388 0.35122 0.33895
C24K C -0.1442(5) 0.5008(5) 0.5358(4)
H18K H -0.11792 0.51228 0.54489
H19K H -0.16564 0.50764 0.55578
H20K H -0.15146 0.51234 0.50894
C25K C -0.1120(6) 0.3689(5) 0.3575(6)
H21K H -0.13496 0.35709 0.37296
H22K H -0.10957 0.35492 0.33091
H23K H -0.11683 0.39823 0.35303
C26K C -0.0014(9) 0.3476(7) 0.3880(7)
H24K H 0.02365 0.33907 0.37566
C28K C -0.0068(5) 0.3554(7) 0.4317(7)
H28K H 0.01677 0.35389 0.44878
#END

data_CSD_CIF_OTIWAR03
_audit_creation_date 2020-04-29
_audit_creation_method CSD-ConQuest-V1
_database_code_CSD OTIWAR03
_database_code_depnum_ccdc_archive 'CCDC 1999896'
_chemical_formula_sum 'C84 H84 Cu4 I4 P4'
_chemical_formula_moiety
;
C84 H84 Cu4 I4 P4
;
_journal_coden_Cambridge 179
_journal_volume 57
_journal_year 2018
_journal_page_first 7106
_journal_name_full 'Angew.Chem.,Int.Ed. '
loop_
_publ_author_name
"Chen Chen"
"Rui-Han Li"
"Bai-Sheng Zhu"
"Kun-Hua Wang"
"Ji-Song Yao"
"Yi-Chen Yin"
"Ming-Ming Yao"
"Hong-Bin Yao"
"Shu-Hong Yu"
_chemical_name_systematic
;
tetrakis(\m-iodo)-tetrakis(tris(m-tolyl)phosphine)-tetra-copper
;
_cell_volume  31771.580
_exptl_crystal_colour 'white'
_exptl_crystal_density_diffrn 1.655
_exptl_special_details
;
Two H atoms appear to have been modelled incorrectly, they have been 
suppressed
;
_exptl_crystal_description 'block'
_diffrn_ambient_temperature 150
#These two values have been output from a single CSD field.
_refine_ls_R_factor_gt 0.0469
_refine_ls_wR_factor_gt 0.0469
_symmetry_cell_setting cubic
_symmetry_space_group_name_H-M 'I -4 3 d'
_symmetry_Int_Tables_number 220
loop_
_symmetry_equiv_pos_site_id
_symmetry_equiv_pos_as_xyz
1 x,y,z
2 1/2-x,-y,1/2+z
3 -x,1/2+y,1/2-z
4 1/2+x,1/2-y,-z
5 z,x,y
6 1/2+z,1/2-x,-y
7 1/2-z,-x,1/2+y
8 -z,1/2+x,1/2-y
9 y,z,x
10 -y,1/2+z,1/2-x
11 1/2+y,1/2-z,-x
12 1/2-y,-z,1/2+x
13 1/4+y,1/4+x,1/4+z
14 1/4-y,3/4-x,3/4+z
15 3/4+y,1/4-x,3/4-z
16 3/4-y,3/4+x,1/4-z
17 1/4+x,1/4+z,1/4+y
18 3/4-x,3/4+z,1/4-y
19 1/4-x,3/4-z,3/4+y
20 3/4+x,1/4-z,3/4-y
21 1/4+z,1/4+y,1/4+x
22 3/4+z,1/4-y,3/4-x
23 3/4-z,3/4+y,1/4-x
24 1/4-z,3/4-y,3/4+x
25 1/2+x,1/2+y,1/2+z
26 -x,1/2-y,z
27 1/2-x,y,-z
28 x,-y,1/2-z
29 1/2+z,1/2+x,1/2+y
30 z,-x,1/2-y
31 -z,1/2-x,y
32 1/2-z,x,-y
33 1/2+y,1/2+z,1/2+x
34 1/2-y,z,-x
35 y,-z,1/2-x
36 -y,1/2-z,x
37 3/4+y,3/4+x,3/4+z
38 3/4-y,1/4-x,1/4+z
39 1/4+y,3/4-x,1/4-z
40 1/4-y,1/4+x,3/4-z
41 3/4+x,3/4+z,3/4+y
42 1/4-x,1/4+z,3/4-y
43 3/4-x,1/4-z,1/4+y
44 1/4+x,3/4-z,1/4-y
45 3/4+z,3/4+y,3/4+x
46 1/4+z,3/4-y,1/4-x
47 1/4-z,1/4+y,3/4-x
48 3/4-z,1/4-y,1/4+x
_cell_length_a 31.6723(4)
_cell_length_b 31.6723(4)
_cell_length_c 31.6723(4)
_cell_angle_alpha 90
_cell_angle_beta 90
_cell_angle_gamma 90
_cell_formula_units_Z 16
loop_
_atom_type_symbol
_atom_type_radius_bond
C 0.68
H 0.23
Cu 1.32
I 1.40
P 1.05
loop_
_atom_site_label
_atom_site_type_symbol
_atom_site_fract_x
_atom_site_fract_y
_atom_site_fract_z
I1 I 0.50929(2) 0.50929(2) 0.50929(2)
I2 I 0.61835(2) 0.51693(2) 0.58850(2)
Cu1 Cu 0.60057(4) 0.60057(4) 0.60057(4)
Cu2 Cu 0.53330(4) 0.50959(4) 0.59117(4)
P1 P 0.64151(7) 0.64151(7) 0.64151(7)
P2 P 0.50700(8) 0.45592(8) 0.62900(7)
C1 C 0.6529(2) 0.6939(3) 0.6212(3)
C2 C 0.5187(3) 0.4031(3) 0.6083(3)
C3 C 0.5235(3) 0.3983(3) 0.5648(3)
H1 H 0.52090 0.42180 0.54750
C4 C 0.4499(3) 0.4572(4) 0.6351(3)
C5 C 0.5002(4) 0.4470(3) 0.7183(3)
H2 H 0.47100 0.44610 0.71540
C6 C 0.5872(5) 0.4478(3) 0.7286(4)
C7 C 0.5321(3) 0.3588(3) 0.5465(3)
C8 C 0.4256(3) 0.4219(5) 0.6309(3)
H3 H 0.43810 0.39610 0.62450
C9 C 0.5360(4) 0.3249(4) 0.5733(4)
H4 H 0.54220 0.29850 0.56200
C10 C 0.5309(4) 0.3287(3) 0.6170(3)
H5 H 0.53300 0.30510 0.63430
C11 C 0.6606(3) 0.6981(3) 0.5777(3)
C12 C 0.5192(6) 0.4433(4) 0.7581(4)
H6 H 0.50230 0.44070 0.78190
C13 C 0.6573(4) 0.7294(3) 0.6471(4)
H7 H 0.65270 0.72730 0.67600
C14 C 0.5228(3) 0.3677(3) 0.6342(3)
H8 H 0.52010 0.37050 0.66330
C15 C 0.5265(3) 0.4522(3) 0.6830(3)
C16 C 0.5699(4) 0.4524(3) 0.6888(4)
H9 H 0.58760 0.45560 0.66560
C17 C 0.3654(4) 0.4641(4) 0.6465(4)
H10 H 0.33640 0.46680 0.64970
C18 C 0.3800(4) 0.4248(4) 0.6366(4)
C19 C 0.5621(6) 0.4434(4) 0.7627(4)
H11 H 0.57400 0.44030 0.78940
C20 C 0.5364(4) 0.3553(4) 0.4991(3)
H12 H 0.55630 0.33340 0.49230
H13 H 0.54620 0.38170 0.48780
H14 H 0.50950 0.34850 0.48700
C21 C 0.6750(4) 0.7714(4) 0.5873(5)
H15 H 0.68200 0.79760 0.57600
C22 C 0.6354(5) 0.4478(5) 0.7316(5)
H16 H 0.64650 0.47230 0.71770
H17 H 0.64630 0.42280 0.71830
H18 H 0.64370 0.44810 0.76080
C23 C 0.6713(3) 0.7374(4) 0.5608(4)
C24 C 0.6688(4) 0.7678(3) 0.6289(4)
H19 H 0.67210 0.79140 0.64610
C25 C 0.3879(5) 0.4987(5) 0.6520(5)
H20 H 0.37520 0.52400 0.65990
C26 C 0.6778(5) 0.7397(5) 0.5130(4)
H21 H 0.70460 0.74670 0.50540
H22 H 0.66170 0.75960 0.49930
C27 C 0.4312(4) 0.4959(5) 0.6457(5)
H23 H 0.44790 0.51990 0.64850
C28 C 0.3555(5) 0.3859(4) 0.6307(5)
H24 H 0.36180 0.36650 0.65320
H25 H 0.36290 0.37320 0.60410
H26 H 0.32590 0.39240 0.63090
H27? H 0.68310 0.67860 0.57050
H28? H 0.63550 0.68840 0.56300
C1D C 0.6212(2) 0.6529(3) 0.6939(3)
C11D C 0.5777(3) 0.6606(3) 0.6981(3)
C13D C 0.6471(4) 0.6573(3) 0.7294(4)
H7D H 0.67600 0.65270 0.72730
C21D C 0.5873(4) 0.6750(4) 0.7714(5)
H15D H 0.57600 0.68200 0.79760
C23D C 0.5608(3) 0.6713(4) 0.7374(4)
C24D C 0.6289(4) 0.6688(3) 0.7678(4)
H19D H 0.64610 0.67210 0.79140
C26D C 0.5130(5) 0.6778(5) 0.7397(4)
H21D H 0.50540 0.70460 0.74670
H22D H 0.49930 0.66170 0.75960
C1H C 0.6939(2) 0.6212(3) 0.6529(3)
C11H C 0.6981(3) 0.5777(3) 0.6606(3)
C13H C 0.7294(4) 0.6471(3) 0.6573(4)
H7H H 0.72730 0.67600 0.65270
C21H C 0.7714(4) 0.5873(4) 0.6750(5)
H15H H 0.79760 0.57600 0.68200
C23H C 0.7374(3) 0.5608(4) 0.6713(4)
C24H C 0.7678(4) 0.6289(3) 0.6688(4)
H19H H 0.79140 0.64610 0.67210
C26H C 0.7397(5) 0.5130(5) 0.6778(4)
H21H H 0.74670 0.50540 0.70460
H22H H 0.75960 0.49930 0.66170
I2D I 0.58850(2) 0.61835(2) 0.51693(2)
Cu2D Cu 0.59117(4) 0.53330(4) 0.50959(4)
P2D P 0.62900(8) 0.50700(8) 0.45592(7)
C2D C 0.6083(3) 0.5187(3) 0.4031(3)
C3D C 0.5648(3) 0.5235(3) 0.3983(3)
H1D H 0.54750 0.52090 0.42180
C4D C 0.6351(3) 0.4499(4) 0.4572(3)
C5D C 0.7183(4) 0.5002(3) 0.4470(3)
H2D H 0.71540 0.47100 0.44610
C6D C 0.7286(5) 0.5872(3) 0.4478(4)
C7D C 0.5465(3) 0.5321(3) 0.3588(3)
C8D C 0.6309(3) 0.4256(5) 0.4219(3)
H3D H 0.62450 0.43810 0.39610
C9D C 0.5733(4) 0.5360(4) 0.3249(4)
H4D H 0.56200 0.54220 0.29850
C10D C 0.6170(4) 0.5309(3) 0.3287(3)
H5D H 0.63430 0.53300 0.30510
C12D C 0.7581(6) 0.5192(4) 0.4433(4)
H6D H 0.78190 0.50230 0.44070
C14D C 0.6342(3) 0.5228(3) 0.3677(3)
H8D H 0.66330 0.52010 0.37050
C15D C 0.6830(3) 0.5265(3) 0.4522(3)
C16D C 0.6888(4) 0.5699(3) 0.4524(4)
H9D H 0.66560 0.58760 0.45560
C17D C 0.6465(4) 0.3654(4) 0.4641(4)
H10D H 0.64970 0.33640 0.46680
C18D C 0.6366(4) 0.3800(4) 0.4248(4)
C19D C 0.7627(6) 0.5621(4) 0.4434(4)
H11D H 0.78940 0.57400 0.44030
C20D C 0.4991(4) 0.5364(4) 0.3553(3)
H12D H 0.49230 0.55630 0.33340
H13D H 0.48780 0.54620 0.38170
H14D H 0.48700 0.50950 0.34850
C22D C 0.7316(5) 0.6354(5) 0.4478(5)
H16D H 0.71770 0.64650 0.47230
H17D H 0.71830 0.64630 0.42280
H18D H 0.76080 0.64370 0.44810
C25D C 0.6520(5) 0.3879(5) 0.4987(5)
H20D H 0.65990 0.37520 0.52400
C27D C 0.6457(4) 0.4312(5) 0.4959(5)
H23D H 0.64850 0.44790 0.51990
C28D C 0.6307(5) 0.3555(4) 0.3859(5)
H24D H 0.65320 0.36180 0.36650
H25D H 0.60410 0.36290 0.37320
H26D H 0.63090 0.32590 0.39240
I2H I 0.51693(2) 0.58850(2) 0.61835(2)
Cu2H Cu 0.50959(4) 0.59117(4) 0.53330(4)
P2H P 0.45592(8) 0.62900(8) 0.50700(7)
C2H C 0.4031(3) 0.6083(3) 0.5187(3)
C3H C 0.3983(3) 0.5648(3) 0.5235(3)
H1H H 0.42180 0.54750 0.52090
C4H C 0.4572(3) 0.6351(4) 0.4499(3)
C5H C 0.4470(4) 0.7183(3) 0.5002(3)
H2H H 0.44610 0.71540 0.47100
C6H C 0.4478(5) 0.7286(3) 0.5872(4)
C7H C 0.3588(3) 0.5465(3) 0.5321(3)
C8H C 0.4219(3) 0.6309(5) 0.4256(3)
H3H H 0.39610 0.62450 0.43810
C9H C 0.3249(4) 0.5733(4) 0.5360(4)
H4H H 0.29850 0.56200 0.54220
C10H C 0.3287(4) 0.6170(3) 0.5309(3)
H5H H 0.30510 0.63430 0.53300
C12H C 0.4433(6) 0.7581(4) 0.5192(4)
H6H H 0.44070 0.78190 0.50230
C14H C 0.3677(3) 0.6342(3) 0.5228(3)
H8H H 0.37050 0.66330 0.52010
C15H C 0.4522(3) 0.6830(3) 0.5265(3)
C16H C 0.4524(4) 0.6888(3) 0.5699(4)
H9H H 0.45560 0.66560 0.58760
C17H C 0.4641(4) 0.6465(4) 0.3654(4)
H10H H 0.46680 0.64970 0.33640
C18H C 0.4248(4) 0.6366(4) 0.3800(4)
C19H C 0.4434(6) 0.7627(4) 0.5621(4)
H11H H 0.44030 0.78940 0.57400
C20H C 0.3553(4) 0.4991(4) 0.5364(3)
H12H H 0.33340 0.49230 0.55630
H13H H 0.38170 0.48780 0.54620
H14H H 0.34850 0.48700 0.50950
C22H C 0.4478(5) 0.7316(5) 0.6354(5)
H16H H 0.47230 0.71770 0.64650
H17H H 0.42280 0.71830 0.64630
H18H H 0.44810 0.76080 0.64370
C25H C 0.4987(5) 0.6520(5) 0.3879(5)
H20H H 0.52400 0.65990 0.37520
C27H C 0.4959(4) 0.6457(5) 0.4312(5)
H23H H 0.51990 0.64850 0.44790
C28H C 0.3859(5) 0.6307(4) 0.3555(5)
H24H H 0.36650 0.65320 0.36180
H25H H 0.37320 0.60410 0.36290
H26H H 0.39240 0.63090 0.32590
#END

data_CSD_CIF_OYOVUU
_audit_creation_date 2011-11-21
_audit_creation_method CSD-ConQuest-V1
_database_code_CSD OYOVUU
_database_code_depnum_ccdc_archive 'CCDC 811467'
_chemical_formula_sum 'C24 H40 B1 Cl1 Mn1 N6'
_chemical_formula_moiety
;
C24 H40 B1 Cl1 Mn1 N6
;
_journal_coden_Cambridge 1220
_journal_volume 17
_journal_year 2011
_journal_page_first 10010
_journal_name_full 'Chem.-Eur.J. '
loop_
_publ_author_name
"T.Tietz"
"C.Limberg"
"R.Stosser"
"B.Ziemer"
_chemical_name_systematic
;
Chloro-(hydridotris(3-t-butyl-5-methylpyrazol-1-yl)borate-N^2^,N'^2^,N''^2^)-m
anganese(ii)
;
_cell_volume  11270.914
_exptl_crystal_density_diffrn 1.211
_exptl_crystal_description 'block'
_diffrn_ambient_temperature 150
#These two values have been output from a single CSD field.
_refine_ls_R_factor_gt 0.0229
_refine_ls_wR_factor_gt 0.0229
_symmetry_cell_setting cubic
_symmetry_space_group_name_H-M 'I -4 3 d'
_symmetry_Int_Tables_number 220
loop_
_symmetry_equiv_pos_site_id
_symmetry_equiv_pos_as_xyz
1 x,y,z
2 1/2+x,1/2-y,-z
3 -x,1/2-y,z
4 1/2-x,y,-z
5 1/4+y,3/4-x,1/4-z
6 3/4-y,1/4-x,1/4+z
7 3/4-y,3/4+x,1/4-z
8 1/4+y,1/4+x,1/4+z
9 y,z,x
10 -y,1/2-z,x
11 1/2+y,1/2-z,-x
12 1/2-y,z,-x
13 1/4+z,3/4-y,1/4-x
14 3/4+z,3/4+y,3/4+x
15 3/4-z,3/4+y,1/4-x
16 1/4-z,3/4-y,3/4+x
17 z,x,y
18 1/2-z,x,-y
19 1/2-z,-x,1/2+y
20 z,-x,1/2-y
21 1/4+x,1/4+z,1/4+y
22 3/4+x,1/4-z,3/4-y
23 1/4-x,1/4+z,3/4-y
24 3/4-x,1/4-z,1/4+y
25 1/2+x,1/2+y,1/2+z
26 x,-y,1/2-z
27 1/2-x,-y,1/2+z
28 -x,1/2+y,1/2-z
29 3/4+y,1/4-x,3/4-z
30 1/4-y,3/4-x,3/4+z
31 1/4-y,1/4+x,3/4-z
32 3/4+y,3/4+x,3/4+z
33 1/2+y,1/2+z,1/2+x
34 1/2-y,-z,1/2+x
35 y,-z,1/2-x
36 -y,1/2+z,1/2-x
37 3/4+z,1/4-y,3/4-x
38 1/4+z,1/4+y,1/4+x
39 1/4-z,1/4+y,3/4-x
40 3/4-z,1/4-y,1/4+x
41 1/2+z,1/2+x,1/2+y
42 -z,1/2+x,1/2-y
43 -z,1/2-x,y
44 1/2+z,1/2-x,-y
45 3/4+x,3/4+z,3/4+y
46 1/4+x,3/4-z,1/4-y
47 3/4-x,3/4+z,1/4-y
48 1/4-x,3/4-z,3/4+y
_cell_length_a 22.4209(13)
_cell_length_b 22.4209(13)
_cell_length_c 22.4209(13)
_cell_angle_alpha 90
_cell_angle_beta 90
_cell_angle_gamma 90
_cell_formula_units_Z 16
loop_
_atom_type_symbol
_atom_type_radius_bond
C 0.68
H 0.23
B 0.83
Cl 0.99
Mn 1.61
N 0.68
loop_
_atom_site_label
_atom_site_type_symbol
_atom_site_fract_x
_atom_site_fract_y
_atom_site_fract_z
C1 C -0.00482(7) 0.35594(7) 0.99965(6)
C2 C 0.04032(6) 0.33984(7) 0.96032(6)
H1 H 0.05060 0.30060 0.94820
C3 C 0.06761(6) 0.39267(7) 0.94219(6)
C4 C -0.04930(7) 0.31835(7) 1.03194(7)
H2 H -0.04130 0.32000 1.07490
H3 H -0.04620 0.27700 1.01810
H4 H -0.08960 0.33340 1.02400
C5 C 0.11952(8) 0.40106(8) 0.89919(8)
C6 C 0.14601(10) 0.34001(9) 0.88354(10)
H5 H 0.17790 0.34510 0.85410
H6 H 0.11470 0.31440 0.86690
H7 H 0.16230 0.32150 0.91960
C7 C 0.16840(8) 0.43897(8) 0.92824(8)
H8 H 0.20240 0.44230 0.90100
H9 H 0.18140 0.42000 0.96540
H10 H 0.15270 0.47880 0.93690
C8 C 0.09698(9) 0.43126(10) 0.84180(8)
H11 H 0.13020 0.43580 0.81370
H12 H 0.08060 0.47060 0.85150
H13 H 0.06580 0.40660 0.82360
B1 B -0.04368(7) 0.45632(7) 1.04368(7)
Cl1 Cl 0.093679(18) 0.593679(18) 0.906321(18)
Mn1 Mn 0.03481(1) 0.53481(1) 0.96519(1)
N1 N 0.04027(6) 0.43932(5) 0.96857(5)
N2 N -0.00405(6) 0.41597(6) 1.00417(5)
C1J C -0.14406(7) 0.50035(7) 1.00482(6)
C1OA C 0.00035(7) 0.49518(7) 1.14406(6)
C2J C -0.16016(6) 0.53968(7) 0.95968(6)
C2OA C 0.03968(6) 0.54032(7) 1.16016(6)
H1J H -0.19940 0.55180 0.94940
H1OA H 0.05180 0.55060 1.19940
C3J C -0.10733(6) 0.55781(7) 0.93239(6)
C3OA C 0.05781(6) 0.56761(7) 1.10733(6)
C4J C -0.18165(7) 0.46806(7) 1.04930(7)
C4OA C -0.03194(7) 0.45070(7) 1.18165(7)
H2J H -0.18000 0.42510 1.04130
H2OA H -0.07490 0.45870 1.18000
H3J H -0.22300 0.48190 1.04620
H3OA H -0.01810 0.45380 1.22300
H4J H -0.16660 0.47600 1.08960
H4OA H -0.02400 0.41040 1.16660
C5J C -0.09894(8) 0.60081(8) 0.88048(8)
C5OA C 0.10081(8) 0.61952(8) 1.09894(8)
C6J C -0.15999(10) 0.61646(9) 0.85399(10)
C6OA C 0.11646(10) 0.64601(9) 1.15999(10)
H5J H -0.15490 0.64590 0.82210
H5OA H 0.14590 0.67790 1.15490
H6J H -0.18560 0.63310 0.88530
H6OA H 0.13310 0.61470 1.18560
H7J H -0.17850 0.58040 0.83770
H7OA H 0.08040 0.66230 1.17850
C7J C -0.06103(8) 0.57176(8) 0.83160(8)
C7OA C 0.07176(8) 0.66840(8) 1.06103(8)
H8J H -0.05770 0.59900 0.79760
H8OA H 0.09900 0.70240 1.05770
H9J H -0.08000 0.53460 0.81860
H9OA H 0.03460 0.68140 1.08000
H10J H -0.02120 0.56310 0.84730
H10OA H 0.06310 0.65270 1.02120
C8J C -0.06874(9) 0.6582(1) 0.90302(8)
C8OA C 0.15820(9) 0.59698(10) 1.06874(8)
H11J H -0.06420 0.68630 0.86980
H11OA H 0.18630 0.63020 1.06420
H12J H -0.02940 0.64850 0.91940
H12OA H 0.14850 0.58060 1.02940
H13J H -0.09340 0.67640 0.93420
H13OA H 0.17640 0.56580 1.09340
N1J N -0.06068(6) 0.53143(5) 0.95973(5)
N1OA N 0.03143(6) 0.54027(5) 1.06068(5)
N2J N -0.08403(6) 0.49583(6) 1.00405(5)
N2OA N -0.00417(6) 0.49595(6) 1.08403(5)
#END

data_CSD_CIF_QAPJUN
_audit_creation_date 2005-10-28
_audit_creation_method CSD-ConQuest-V1
_database_code_CSD QAPJUN
_database_code_depnum_ccdc_archive 'CCDC 256034'
_chemical_formula_sum 'C12 H20 Cl2 Co1 N4 O4'
_chemical_formula_moiety
;
C12 H20 Cl2 Co1 N4 O4
;
_journal_coden_Cambridge 29
_journal_volume 631
_journal_year 2005
_journal_page_first 1419
_journal_name_full 'Z.Anorg.Allg.Chem. '
loop_
_publ_author_name
"K.B.Girma"
"V.Lorenz"
"S.Blaurock"
"F.T.Edelmann"
_chemical_name_systematic
;
Dichloro-tetrakis(2-propenamide-O)-cobalt(ii)
;
_chemical_name_common
;
Dichloro-tetrakis(acrylamide-O)-cobalt(ii)
;
_cell_volume   5694.105
_exptl_crystal_colour 'violet'
_exptl_crystal_density_diffrn 1.449
_exptl_crystal_description 'platelet'
_exptl_crystal_preparation 'absolute ethanol/diethyl ether'
_diffrn_ambient_temperature 210
#These two values have been output from a single CSD field.
_refine_ls_R_factor_gt 0.0201
_refine_ls_wR_factor_gt 0.0201
_symmetry_cell_setting cubic
_symmetry_space_group_name_H-M 'I -4 3 d'
_symmetry_Int_Tables_number 220
loop_
_symmetry_equiv_pos_site_id
_symmetry_equiv_pos_as_xyz
1 x,y,z
2 1/2-x,-y,1/2+z
3 -x,1/2+y,1/2-z
4 1/2+x,1/2-y,-z
5 z,x,y
6 1/2+z,1/2-x,-y
7 1/2-z,-x,1/2+y
8 -z,1/2+x,1/2-y
9 y,z,x
10 -y,1/2+z,1/2-x
11 1/2+y,1/2-z,-x
12 1/2-y,-z,1/2+x
13 1/4+y,1/4+x,1/4+z
14 1/4-y,3/4-x,3/4+z
15 3/4+y,1/4-x,3/4-z
16 3/4-y,3/4+x,1/4-z
17 1/4+x,1/4+z,1/4+y
18 3/4-x,3/4+z,1/4-y
19 1/4-x,3/4-z,3/4+y
20 3/4+x,1/4-z,3/4-y
21 1/4+z,1/4+y,1/4+x
22 3/4+z,1/4-y,3/4-x
23 3/4-z,3/4+y,1/4-x
24 1/4-z,3/4-y,3/4+x
25 1/2+x,1/2+y,1/2+z
26 -x,1/2-y,z
27 1/2-x,y,-z
28 x,-y,1/2-z
29 1/2+z,1/2+x,1/2+y
30 z,-x,1/2-y
31 -z,1/2-x,y
32 1/2-z,x,-y
33 1/2+y,1/2+z,1/2+x
34 1/2-y,z,-x
35 y,-z,1/2-x
36 -y,1/2-z,x
37 3/4+y,3/4+x,3/4+z
38 3/4-y,1/4-x,1/4+z
39 1/4+y,3/4-x,1/4-z
40 1/4-y,1/4+x,3/4-z
41 3/4+x,3/4+z,3/4+y
42 1/4-x,1/4+z,3/4-y
43 3/4-x,1/4-z,1/4+y
44 1/4+x,3/4-z,1/4-y
45 3/4+z,3/4+y,3/4+x
46 1/4+z,3/4-y,1/4-x
47 1/4-z,1/4+y,3/4-x
48 3/4-z,1/4-y,1/4+x
_cell_length_a 17.857(2)
_cell_length_b 17.857(2)
_cell_length_c 17.857(2)
_cell_angle_alpha 90
_cell_angle_beta 90
_cell_angle_gamma 90
_cell_formula_units_Z 12
loop_
_atom_type_symbol
_atom_type_radius_bond
C 0.68
H 0.23
Cl 0.99
Co 1.33
N 0.68
O 0.68
loop_
_atom_site_label
_atom_site_type_symbol
_atom_site_fract_x
_atom_site_fract_y
_atom_site_fract_z
Co1 Co 0.00000 0.75000 0.12500
Cl1 Cl 0.00000 0.75000 -0.01288(3)
O1 O 0.11690(6) 0.76322(6) 0.12017(6)
N1 N 0.13653(10) 0.86080(9) 0.19735(11)
C1 C 0.27293(12) 0.75851(16) 0.09364(14)
C2 C 0.24075(9) 0.81100(12) 0.13261(11)
C3 C 0.16000(8) 0.81011(9) 0.14997(9)
H1 H 0.0888(13) 0.8633(13) 0.2064(13)
H2 H 0.2658(12) 0.8473(14) 0.1461(13)
H3 H 0.2471(12) 0.7201(12) 0.0759(11)
H4 H 0.3282(15) 0.7524(18) 0.0851(15)
H5 H 0.1653(14) 0.8926(15) 0.2136(13)
Cl1O Cl 0.00000 0.75000 0.26288(3)
O1O O -0.01322(6) 0.86690(6) 0.12983(6)
O1Y O -0.11690(6) 0.73678(6) 0.12017(6)
O1LA O 0.01322(6) 0.63310(6) 0.12983(6)
N1O N -0.1108(1) 0.88653(9) 0.05265(11)
N1Y N -0.13653(10) 0.63920(9) 0.19735(11)
N1LA N 0.1108(1) 0.61347(9) 0.05265(11)
C1O C -0.00851(12) 1.02293(16) 0.15636(14)
C1Y C -0.27293(12) 0.74149(16) 0.09364(14)
C1LA C 0.00851(12) 0.47707(16) 0.15636(14)
C2O C -0.06100(9) 0.99075(12) 0.11739(11)
C2Y C -0.24075(9) 0.68900(12) 0.13261(11)
C2LA C 0.06100(9) 0.50925(12) 0.11739(11)
C3O C -0.06011(8) 0.91000(9) 0.10003(9)
C3Y C -0.16000(8) 0.68989(9) 0.14997(9)
C3LA C 0.06011(8) 0.59000(9) 0.10003(9)
H1O H -0.1133(13) 0.8388(13) 0.0436(13)
H1Y H -0.0888(13) 0.6367(13) 0.2064(13)
H1LA H 0.1133(13) 0.6612(13) 0.0436(13)
H2O H -0.0973(12) 1.0158(14) 0.1039(13)
H2Y H -0.2658(12) 0.6527(14) 0.1461(13)
H2LA H 0.0973(12) 0.4842(14) 0.1039(13)
H3O H 0.0299(12) 0.9971(12) 0.1741(11)
H3Y H -0.2471(12) 0.7799(12) 0.0759(11)
H3LA H -0.0299(12) 0.5029(12) 0.1741(11)
H4O H -0.0024(15) 1.0782(18) 0.1649(15)
H4Y H -0.3282(15) 0.7476(18) 0.0851(15)
H4LA H 0.0024(15) 0.4218(18) 0.1649(15)
H5O H -0.1426(14) 0.9153(15) 0.0364(13)
H5Y H -0.1653(14) 0.6074(15) 0.2136(13)
H5LA H 0.1426(14) 0.5847(15) 0.0364(13)
#END

data_CSD_CIF_QOWDOW
_audit_creation_date 2009-11-17
_audit_creation_method CSD-ConQuest-V1
_database_code_CSD QOWDOW
_database_code_depnum_ccdc_archive 'CCDC 729123'
_chemical_formula_sum 'C42 H33 Co1 N12 O3'
_chemical_formula_moiety
;
C42 H27 Co1 N12,3(H2 O1)
;
_journal_coden_Cambridge 1147
_journal_volume 9
_journal_year 2009
_journal_page_first 488
_journal_name_full 'Cryst.Growth Des. '
loop_
_publ_author_name
"Hao-Jun Mo"
"Yong-Rui Zhong"
"Man-Li Cao"
"Yong-Cong Ou"
"Bao-Hui Ye"
_chemical_name_systematic
;
tris(Hydrogen 2,2'-bi-benzimidazolato-N,N')-cobalt(iii) trihydrate
;
_cell_volume  15035.388
_exptl_crystal_colour 'red'
_exptl_crystal_density_diffrn 1.436
_exptl_crystal_description 'block'
_diffrn_ambient_temperature 293
#These two values have been output from a single CSD field.
_refine_ls_R_factor_gt 0.0494
_refine_ls_wR_factor_gt 0.0494
_symmetry_cell_setting cubic
_symmetry_space_group_name_H-M 'I -4 3 d'
_symmetry_Int_Tables_number 220
loop_
_symmetry_equiv_pos_site_id
_symmetry_equiv_pos_as_xyz
1 x,y,z
2 1/2-x,-y,1/2+z
3 -x,1/2+y,1/2-z
4 1/2+x,1/2-y,-z
5 z,x,y
6 1/2+z,1/2-x,-y
7 1/2-z,-x,1/2+y
8 -z,1/2+x,1/2-y
9 y,z,x
10 -y,1/2+z,1/2-x
11 1/2+y,1/2-z,-x
12 1/2-y,-z,1/2+x
13 1/4+y,1/4+x,1/4+z
14 1/4-y,3/4-x,3/4+z
15 3/4+y,1/4-x,3/4-z
16 3/4-y,3/4+x,1/4-z
17 1/4+x,1/4+z,1/4+y
18 3/4-x,3/4+z,1/4-y
19 1/4-x,3/4-z,3/4+y
20 3/4+x,1/4-z,3/4-y
21 1/4+z,1/4+y,1/4+x
22 3/4+z,1/4-y,3/4-x
23 3/4-z,3/4+y,1/4-x
24 1/4-z,3/4-y,3/4+x
25 1/2+x,1/2+y,1/2+z
26 -x,1/2-y,z
27 1/2-x,y,-z
28 x,-y,1/2-z
29 1/2+z,1/2+x,1/2+y
30 z,-x,1/2-y
31 -z,1/2-x,y
32 1/2-z,x,-y
33 1/2+y,1/2+z,1/2+x
34 1/2-y,z,-x
35 y,-z,1/2-x
36 -y,1/2-z,x
37 3/4+y,3/4+x,3/4+z
38 3/4-y,1/4-x,1/4+z
39 1/4+y,3/4-x,1/4-z
40 1/4-y,1/4+x,3/4-z
41 3/4+x,3/4+z,3/4+y
42 1/4-x,1/4+z,3/4-y
43 3/4-x,1/4-z,1/4+y
44 1/4+x,3/4-z,1/4-y
45 3/4+z,3/4+y,3/4+x
46 1/4+z,3/4-y,1/4-x
47 1/4-z,1/4+y,3/4-x
48 3/4-z,1/4-y,1/4+x
_cell_length_a 24.6815(10)
_cell_length_b 24.6815(10)
_cell_length_c 24.6815(10)
_cell_angle_alpha 90
_cell_angle_beta 90
_cell_angle_gamma 90
_cell_formula_units_Z 16
loop_
_atom_type_symbol
_atom_type_radius_bond
C 0.68
H 0.23
Co 1.26
N 0.68
O 0.68
loop_
_atom_site_label
_atom_site_type_symbol
_atom_site_fract_x
_atom_site_fract_y
_atom_site_fract_z
Co1 Co 0.816638(17) 0.183363(17) 0.683363(17)
O1 O 0.79251(13) 0.42348(13) 0.55062(12)
H1 H 0.79280 0.39630 0.57210
H2 H 0.78060 0.40870 0.52080
N1 N 0.81544(11) 0.26172(10) 0.67773(10)
N2 N 0.80966(12) 0.33429(11) 0.62055(12)
N3 N 0.81332(12) 0.24194(12) 0.53183(11)
H3 H 0.81170 0.27110 0.51290
N4 N 0.81602(11) 0.18790(11) 0.60387(9)
C1 C 0.81179(13) 0.28054(13) 0.62634(13)
C2 C 0.81627(13) 0.30806(13) 0.70930(13)
C3 C 0.82019(15) 0.31641(16) 0.76501(15)
H4 H 0.82130 0.28750 0.78920
C4 C 0.82228(17) 0.36888(16) 0.78262(17)
H5 H 0.82520 0.37540 0.81960
C5 C 0.82017(18) 0.41292(15) 0.74751(18)
H6 H 0.82240 0.44790 0.76140
C6 C 0.81480(16) 0.40545(14) 0.69261(17)
H7 H 0.81240 0.43480 0.66920
C7 C 0.81308(14) 0.35270(13) 0.67320(14)
C8 C 0.81288(13) 0.23842(13) 0.58594(12)
C9 C 0.81881(14) 0.15547(14) 0.55750(13)
C10 C 0.82306(17) 0.10025(16) 0.54991(15)
H8 H 0.82410 0.07680 0.57940
C11 C 0.82569(18) 0.08070(19) 0.49821(16)
H9 H 0.82910 0.04360 0.49260
C12 C 0.82331(18) 0.1153(2) 0.45360(16)
H10 H 0.82420 0.10060 0.41890
C13 C 0.81967(17) 0.1701(2) 0.45934(14)
H11 H 0.81910 0.19310 0.42950
C14 C 0.81688(14) 0.19000(16) 0.51240(13)
N1F N 0.82227(11) 0.18456(10) 0.76172(10)
N1I N 0.73828(11) 0.17773(10) 0.68456(10)
N2F N 0.87945(12) 0.19034(11) 0.83429(12)
N2I N 0.66571(12) 0.12055(11) 0.69034(12)
N3F N 0.96817(12) 0.18668(12) 0.74194(11)
N3I N 0.75806(12) 0.03183(12) 0.68668(11)
H3F H 0.98710 0.18830 0.77110
H3I H 0.72890 0.01290 0.68830
N4F N 0.89613(11) 0.18398(11) 0.68790(9)
N4I N 0.81210(11) 0.10387(11) 0.68398(9)
C1F C 0.87366(13) 0.18821(13) 0.78054(13)
C1I C 0.71946(13) 0.12634(13) 0.68821(13)
C2F C 0.79070(13) 0.18373(13) 0.80806(13)
C2I C 0.69194(13) 0.20930(13) 0.68373(13)
C3F C 0.73499(15) 0.17981(16) 0.81641(15)
C3I C 0.68359(15) 0.26501(16) 0.67981(15)
H4F H 0.71080 0.17870 0.78750
H4I H 0.71250 0.28920 0.67870
C4F C 0.71738(17) 0.17772(16) 0.86888(17)
C4I C 0.63112(17) 0.28262(16) 0.67772(17)
H5F H 0.68040 0.17480 0.87540
H5I H 0.62460 0.31960 0.67480
C5F C 0.75249(18) 0.17983(15) 0.91292(18)
C5I C 0.58708(18) 0.24751(15) 0.67983(18)
H6F H 0.73860 0.17760 0.94790
H6I H 0.55210 0.26140 0.67760
C6F C 0.80739(16) 0.18520(14) 0.90545(17)
C6I C 0.59455(16) 0.19261(14) 0.68520(17)
H7F H 0.83080 0.18760 0.93480
H7I H 0.56520 0.16920 0.68760
C7F C 0.82680(14) 0.18692(13) 0.85270(14)
C7I C 0.64730(14) 0.17320(13) 0.68692(14)
C8F C 0.91406(13) 0.18712(13) 0.73842(12)
C8I C 0.76158(13) 0.08594(13) 0.68712(12)
C9F C 0.94250(14) 0.18119(14) 0.65547(13)
C9I C 0.84453(14) 0.05750(14) 0.68119(13)
C10F C 0.95009(17) 0.17694(16) 0.60025(15)
C10I C 0.89975(17) 0.04991(16) 0.67694(15)
H8F H 0.92060 0.17590 0.57680
H8I H 0.92320 0.07940 0.67590
C11F C 1.00179(18) 0.17431(19) 0.58070(16)
C11I C 0.91930(18) -0.00179(19) 0.67431(16)
H9F H 1.00740 0.17090 0.54360
H9I H 0.95640 -0.00740 0.67090
C12F C 1.04640(18) 0.17669(20) 0.61530(16)
C12I C 0.88470(18) -0.0464(2) 0.67669(16)
H10F H 1.08110 0.17580 0.60060
H10I H 0.89940 -0.08110 0.67580
C13F C 1.04066(17) 0.18033(20) 0.67010(14)
C13I C 0.82990(17) -0.04066(20) 0.68033(14)
H11F H 1.07050 0.18090 0.69310
H11I H 0.80690 -0.07050 0.68090
C14F C 0.98760(14) 0.18312(16) 0.69000(13)
C14I C 0.81000(14) 0.01240(16) 0.68312(13)
#END

data_CSD_CIF_REVTAN
_audit_creation_date 1997-10-09
_audit_creation_method CSD-ConQuest-V1
_database_code_CSD REVTAN
_database_code_depnum_ccdc_journal 186/273
_chemical_formula_sum 'C37 H33 Au3 I3 O1 P3'
_chemical_formula_moiety
;
C37 H31 Au3 I3 P3,H2 O1
;
_journal_coden_Cambridge 186
_journal_year 1997
_journal_page_first 221
_journal_name_full 'J.Chem.Soc.,Dalton Trans. '
loop_
_publ_author_name
"Hong Xiao"
"Yu-Xiang Weng"
"Wing-Tak Wong"
"T.C.W.Mak"
"Chi-Ming Che"
_chemical_name_systematic
;
(\m~3~-tris(Diphenylphosphino)methane)-tri-iodo-tri-gold(i) monohydrate
;
_cell_volume  16144.401
_exptl_crystal_density_diffrn 2.564
_exptl_special_details
;
space group published as I43d

;
_diffrn_ambient_temperature ?
_diffrn_special_details
;
The study was carried out at room temperature,in the range 283-303K

;
#These two values have been output from a single CSD field.
_refine_ls_R_factor_gt 0.027
_refine_ls_wR_factor_gt 0.027
_symmetry_cell_setting cubic
_symmetry_space_group_name_H-M 'I -4 3 d'
_symmetry_Int_Tables_number 220
loop_
_symmetry_equiv_pos_site_id
_symmetry_equiv_pos_as_xyz
1 x,y,z
2 1/4+y,3/4-x,1/4-z
3 1/2+x,1/2-y,-z
4 z,x,y
5 -x,1/2-y,z
6 3/4-y,1/4-x,1/4+z
7 1/4+x,3/4-z,1/4-y
8 3/4-y,3/4+x,1/4-z
9 1/2-x,y,-z
10 -z,1/2-x,y
11 1/4+y,1/4+x,1/4+z
12 3/4-x,3/4+z,1/4-y
13 1/2+z,1/2-x,-y
14 3/4+x,3/4+z,3/4+y
15 1/2-z,x,-y
16 1/4-x,3/4-z,3/4+y
17 y,z,x
18 1/4+z,3/4-y,1/4-x
19 1/4-z,3/4-y,3/4+x
20 y,-z,1/2-x
21 1/4+z,1/4+y,1/4+x
22 -y,1/2+z,1/2-x
23 -y,1/2-z,x
24 3/4-z,3/4+y,1/4-x
25 1/2+x,1/2+y,1/2+z
26 3/4+y,1/4-x,3/4-z
27 x,-y,1/2-z
28 1/2+z,1/2+x,1/2+y
29 1/2-x,-y,1/2+z
30 1/4-y,3/4-x,3/4+z
31 3/4+x,1/4-z,3/4-y
32 1/4-y,1/4+x,3/4-z
33 -x,1/2+y,1/2-z
34 1/2-z,-x,1/2+y
35 3/4+y,3/4+x,3/4+z
36 1/4-x,1/4+z,3/4-y
37 z,-x,1/2-y
38 1/4+x,1/4+z,1/4+y
39 -z,1/2+x,1/2-y
40 3/4-x,1/4-z,1/4+y
41 1/2+y,1/2+z,1/2+x
42 3/4+z,1/4-y,3/4-x
43 3/4-z,1/4-y,1/4+x
44 1/2+y,1/2-z,-x
45 3/4+z,3/4+y,3/4+x
46 1/2-y,z,-x
47 1/2-y,-z,1/2+x
48 1/4-z,1/4+y,3/4-x
_cell_length_a 25.274(3)
_cell_length_b 25.274(3)
_cell_length_c 25.274(3)
_cell_angle_alpha 90
_cell_angle_beta 90
_cell_angle_gamma 90
_cell_formula_units_Z 16
loop_
_atom_type_symbol
_atom_type_radius_bond
C 0.68
H 0.23
Au 1.50
I 1.40
O 0.68
P 1.05
loop_
_atom_site_label
_atom_site_type_symbol
_atom_site_fract_x
_atom_site_fract_y
_atom_site_fract_z
Au1 Au 0.03952(2) 0.09562(2) 0.14061(2)
I1 I 0.05724(4) 0.18432(4) 0.18690(4)
P1 P 0.0066(1) 0.0233(1) 0.0983(1)
C1 C 0.0262(4) 0.0262(4) 0.0262(4)
C2 C -0.0642(5) 0.0199(4) 0.1029(5)
C3 C -0.0886(5) 0.0502(5) 0.1420(5)
C4 C -0.1432(5) 0.0469(6) 0.1501(6)
C5 C -0.1722(6) 0.0144(6) 0.1189(6)
C6 C -0.1500(6) -0.0167(6) 0.0803(6)
C7 C -0.0950(5) -0.0124(5) 0.0720(5)
C8 C 0.0276(5) -0.0410(5) 0.1245(5)
C9 C 0.0599(5) -0.0414(6) 0.1688(5)
C10 C 0.0755(6) -0.0895(7) 0.1907(7)
C11 C 0.0602(6) -0.1357(6) 0.1675(7)
C12 C 0.0281(6) -0.1348(6) 0.1227(6)
C13 C 0.0125(5) -0.0876(5) 0.1020(5)
O1 O 0.1994(4) 0.1994(4) 0.1994(4)
H1 H 0.00430 0.00430 0.00430
H2 H -0.06750 0.07320 0.16370
H3 H -0.16010 0.06700 0.17750
H4 H -0.20980 0.01300 0.12400
H5 H -0.17110 -0.04020 0.05920
H6 H -0.07840 -0.03250 0.04430
H7 H 0.07110 -0.00850 0.18410
H8 H 0.09710 -0.09000 0.22190
H9 H 0.07150 -0.16870 0.18240
H10 H 0.01750 -0.16750 0.10660
H11 H -0.00930 -0.08690 0.07080
Au1C Au 0.14061(2) 0.03952(2) 0.09562(2)
Au1P Au 0.09562(2) 0.14061(2) 0.03952(2)
P1C P 0.0983(1) 0.0066(1) 0.0233(1)
I1C I 0.18690(4) 0.05724(4) 0.18432(4)
C2C C 0.1029(5) -0.0642(4) 0.0199(5)
C3C C 0.1420(5) -0.0886(5) 0.0502(5)
C4C C 0.1501(5) -0.1432(6) 0.0469(6)
C5C C 0.1189(6) -0.1722(6) 0.0144(6)
C6C C 0.0803(6) -0.1500(6) -0.0167(6)
C7C C 0.0720(5) -0.0950(5) -0.0124(5)
H6C H 0.04430 -0.07840 -0.03250
H5C H 0.05920 -0.17110 -0.04020
H4C H 0.12400 -0.20980 0.01300
H3C H 0.17750 -0.16010 0.06700
H2C H 0.16370 -0.06750 0.07320
C8C C 0.1245(5) 0.0276(5) -0.0410(5)
C9C C 0.1688(5) 0.0599(6) -0.0414(5)
C10C C 0.1907(6) 0.0755(7) -0.0895(7)
C11C C 0.1675(6) 0.0602(6) -0.1357(7)
C12C C 0.1227(6) 0.0281(6) -0.1348(6)
C13C C 0.1020(5) 0.0125(5) -0.0876(5)
H11C H 0.07080 -0.00930 -0.08690
H10C H 0.10660 0.01750 -0.16750
H9C H 0.18240 0.07150 -0.16870
H8C H 0.22190 0.09710 -0.09000
H7C H 0.18410 0.07110 -0.00850
P1P P 0.0233(1) 0.0983(1) 0.0066(1)
I1P I 0.18432(4) 0.18690(4) 0.05724(4)
C2P C 0.0199(5) 0.1029(4) -0.0642(5)
C3P C 0.0502(5) 0.1420(5) -0.0886(5)
C4P C 0.0469(5) 0.1501(6) -0.1432(6)
C5P C 0.0144(6) 0.1189(6) -0.1722(6)
C6P C -0.0167(6) 0.0803(6) -0.1500(6)
C7P C -0.0124(5) 0.0720(5) -0.0950(5)
H6P H -0.03250 0.04430 -0.07840
H5P H -0.04020 0.05920 -0.17110
H4P H 0.01300 0.12400 -0.20980
H3P H 0.06700 0.17750 -0.16010
H2P H 0.07320 0.16370 -0.06750
C8P C -0.0410(5) 0.1245(5) 0.0276(5)
C9P C -0.0414(5) 0.1688(6) 0.0599(5)
C10P C -0.0895(6) 0.1907(7) 0.0755(7)
C11P C -0.1357(6) 0.1675(6) 0.0602(7)
C12P C -0.1348(6) 0.1227(6) 0.0281(6)
C13P C -0.0876(5) 0.1020(5) 0.0125(5)
H11P H -0.08690 0.07080 -0.00930
H10P H -0.16750 0.10660 0.01750
H9P H -0.16870 0.18240 0.07150
H8P H -0.09000 0.22190 0.09710
H7P H -0.00850 0.18410 0.07110
#END

data_CSD_CIF_SOTROJ
_audit_creation_date 2009-07-30
_audit_creation_method CSD-ConQuest-V1
_database_code_CSD SOTROJ
_database_code_depnum_ccdc_archive 'CCDC 610326'
_chemical_formula_sum 'C51 H63 Cl1 N6 Si3 Zr1'
_chemical_formula_moiety
;
C51 H63 Cl1 N6 Si3 Zr1
;
_journal_coden_Cambridge 155
_journal_volume 362
_journal_year 2009
_journal_page_first 583
_journal_name_full 'Inorg.Chim.Acta '
loop_
_publ_author_name
"Yong Zhang"
"Jian-Ren Xie"
"Jian-Ping Guo"
"Xue-Hong Wei"
"Shu-Ping Huang"
"Dian-Sheng Liu"
_chemical_name_systematic
;
tris(N-Benzyl-N'-(trimethylsilyl)benzamidinato-N,N')-chloro-zirconium(iv)
;
_cell_volume  20706.257
_exptl_crystal_colour 'colorless'
_exptl_crystal_density_diffrn 1.246
_exptl_crystal_description 'block'
_diffrn_ambient_temperature 203
#These two values have been output from a single CSD field.
_refine_ls_R_factor_gt 0.028
_refine_ls_wR_factor_gt 0.028
_symmetry_cell_setting cubic
_symmetry_space_group_name_H-M 'I -4 3 d'
_symmetry_Int_Tables_number 220
loop_
_symmetry_equiv_pos_site_id
_symmetry_equiv_pos_as_xyz
1 x,y,z
2 1/2-x,-y,1/2+z
3 -x,1/2+y,1/2-z
4 1/2+x,1/2-y,-z
5 z,x,y
6 1/2+z,1/2-x,-y
7 1/2-z,-x,1/2+y
8 -z,1/2+x,1/2-y
9 y,z,x
10 -y,1/2+z,1/2-x
11 1/2+y,1/2-z,-x
12 1/2-y,-z,1/2+x
13 1/4+y,1/4+x,1/4+z
14 1/4-y,3/4-x,3/4+z
15 3/4+y,1/4-x,3/4-z
16 3/4-y,3/4+x,1/4-z
17 1/4+x,1/4+z,1/4+y
18 3/4-x,3/4+z,1/4-y
19 1/4-x,3/4-z,3/4+y
20 3/4+x,1/4-z,3/4-y
21 1/4+z,1/4+y,1/4+x
22 3/4+z,1/4-y,3/4-x
23 3/4-z,3/4+y,1/4-x
24 1/4-z,3/4-y,3/4+x
25 1/2+x,1/2+y,1/2+z
26 -x,1/2-y,z
27 1/2-x,y,-z
28 x,-y,1/2-z
29 1/2+z,1/2+x,1/2+y
30 z,-x,1/2-y
31 -z,1/2-x,y
32 1/2-z,x,-y
33 1/2+y,1/2+z,1/2+x
34 1/2-y,z,-x
35 y,-z,1/2-x
36 -y,1/2-z,x
37 3/4+y,3/4+x,3/4+z
38 3/4-y,1/4-x,1/4+z
39 1/4+y,3/4-x,1/4-z
40 1/4-y,1/4+x,3/4-z
41 3/4+x,3/4+z,3/4+y
42 1/4-x,1/4+z,3/4-y
43 3/4-x,1/4-z,1/4+y
44 1/4+x,3/4-z,1/4-y
45 3/4+z,3/4+y,3/4+x
46 1/4+z,3/4-y,1/4-x
47 1/4-z,1/4+y,3/4-x
48 3/4-z,1/4-y,1/4+x
_cell_length_a 27.460(3)
_cell_length_b 27.460(3)
_cell_length_c 27.460(3)
_cell_angle_alpha 90
_cell_angle_beta 90
_cell_angle_gamma 90
_cell_formula_units_Z 16
loop_
_atom_type_symbol
_atom_type_radius_bond
C 0.68
H 0.23
Cl 0.99
N 0.68
Si 1.20
Zr 1.75
loop_
_atom_site_label
_atom_site_type_symbol
_atom_site_fract_x
_atom_site_fract_y
_atom_site_fract_z
Zr1 Zr -0.026728(7) -0.026728(7) 0.973272(7)
Si1 Si 0.02427(3) -0.02545(2) 0.84956(2)
N1 N -0.01038(7) 0.05444(7) 0.96322(6)
N2 N 0.00338(7) 0.00137(7) 0.90343(7)
C1 C -0.03100(9) 0.09969(9) 0.98118(8)
H1 H -0.06290 0.09240 0.99540
H2 H -0.03650 0.12120 0.95320
C2 C -0.00191(9) 0.12738(10) 1.01824(9)
C3 C 0.04802(10) 0.12601(11) 1.02127(10)
H3 H 0.06560 0.10510 1.00060
C4 C 0.07277(13) 0.15492(15) 1.05428(13)
H4 H 0.10700 0.15450 1.05510
C5 C 0.0475(2) 0.1842(2) 1.08590(17)
H5 H 0.06440 0.20400 1.10820
C6 C -0.0024(2) 0.1846(3) 1.0848(2)
H6 H -0.01980 0.20380 1.10720
C7 C -0.02712(16) 0.15676(17) 1.05101(15)
H7 H -0.06130 0.15770 1.05010
C8 C -0.00154(8) 0.04806(8) 0.91610(8)
C9 C 0.00149(9) 0.08916(8) 0.88004(8)
C10 C -0.02986(11) 0.09092(9) 0.84063(9)
H8 H -0.05390 0.06680 0.83690
C11 C -0.02595(14) 0.12819(10) 0.80659(10)
H9 H -0.04740 0.12940 0.77990
C12 C 0.00952(15) 0.16339(11) 0.81205(11)
H10 H 0.01230 0.18850 0.78900
C13 C 0.04045(14) 0.16178(11) 0.85083(12)
H11 H 0.06470 0.18570 0.85430
C14 C 0.03636(11) 0.12492(10) 0.88539(10)
H12 H 0.05740 0.12440 0.91240
C15 C 0.07335(13) 0.01178(12) 0.82113(11)
H13 H 0.06050 0.04350 0.81240
H14 H 0.08520 -0.00450 0.79210
H15 H 0.09990 0.01570 0.84410
C16 C 0.04943(12) -0.08634(10) 0.86616(11)
H16 H 0.02400 -0.10590 0.88100
H17 H 0.07600 -0.08220 0.88910
H18 H 0.06130 -0.10250 0.83710
C17 C -0.02603(13) -0.03692(11) 0.80568(9)
H19 H -0.04040 -0.00620 0.79590
H20 H -0.05070 -0.05710 0.82100
H21 H -0.01330 -0.05350 0.77720
Cl1 Cl -0.07883(2) -0.07883(2) 0.92117(2)
Si1D Si -0.15044(3) 0.02427(2) 0.97455(2)
Si1H Si -0.02545(3) -0.15044(2) 1.02427(2)
N1D N -0.03678(7) -0.01038(7) 1.05444(6)
N1H N 0.05444(7) -0.03678(7) 0.98962(6)
N2D N -0.09657(7) 0.00338(7) 1.00137(7)
N2H N 0.00137(7) -0.09657(7) 1.00338(7)
C1D C -0.01882(9) -0.03100(9) 1.09969(8)
C1H C 0.09969(9) -0.01882(9) 0.96900(8)
H1D H -0.00460 -0.06290 1.09240
H1H H 0.09240 -0.00460 0.93710
H2D H -0.04680 -0.03650 1.12120
H2H H 0.12120 -0.04680 0.96350
C2D C 0.01824(9) -0.00191(10) 1.12738(9)
C2H C 0.12738(9) 0.01824(10) 0.99809(9)
C3D C 0.02127(10) 0.04802(11) 1.12601(10)
C3H C 0.12601(10) 0.02127(11) 1.04802(10)
H3D H 0.00060 0.06560 1.10510
H3H H 0.10510 0.00060 1.06560
C4D C 0.05428(13) 0.07277(15) 1.15492(13)
C4H C 0.15492(13) 0.05428(15) 1.07277(13)
H4D H 0.05510 0.10700 1.15450
H4H H 0.15450 0.05510 1.10700
C5D C 0.0859(2) 0.0475(2) 1.18420(17)
C5H C 0.1842(2) 0.0859(2) 1.04750(17)
H5D H 0.10820 0.06440 1.20400
H5H H 0.20400 0.10820 1.06440
C6D C 0.0848(2) -0.0024(3) 1.1846(2)
C6H C 0.1846(2) 0.0848(3) 0.9976(2)
H6D H 0.10720 -0.01980 1.20380
H6H H 0.20380 0.10720 0.98020
C7D C 0.05101(16) -0.02712(17) 1.15676(15)
C7H C 0.15676(16) 0.05101(17) 0.97288(15)
H7D H 0.05010 -0.06130 1.15770
H7H H 0.15770 0.05010 0.93870
C8D C -0.08390(8) -0.00154(8) 1.04806(8)
C8H C 0.04806(8) -0.08390(8) 0.99846(8)
C9D C -0.11996(9) 0.00149(8) 1.08916(8)
C9H C 0.08916(9) -0.11996(8) 1.00149(8)
C10D C -0.15937(11) -0.02986(9) 1.09092(9)
C10H C 0.09092(11) -0.15937(9) 0.97014(9)
H8D H -0.16310 -0.05390 1.06680
H8H H 0.06680 -0.16310 0.94610
C11D C -0.19341(14) -0.02595(10) 1.12819(10)
C11H C 0.12819(14) -0.19341(10) 0.97405(10)
H9D H -0.22010 -0.04740 1.12940
H9H H 0.12940 -0.22010 0.95260
C12D C -0.18795(15) 0.00952(11) 1.16339(11)
C12H C 0.16339(15) -0.18795(11) 1.00952(11)
H10D H -0.21100 0.01230 1.18850
H10H H 0.18850 -0.21100 1.01230
C13D C -0.14917(14) 0.04045(11) 1.16178(12)
C13H C 0.16178(14) -0.14917(11) 1.04045(12)
H11D H -0.14570 0.06470 1.18570
H11H H 0.18570 -0.14570 1.06470
C14D C -0.11461(11) 0.03636(10) 1.12492(10)
C14H C 0.12492(11) -0.11461(10) 1.03636(10)
H12D H -0.08760 0.05740 1.12440
H12H H 0.12440 -0.08760 1.05740
C15D C -0.17887(13) 0.07335(12) 1.01178(11)
C15H C 0.01178(13) -0.17887(12) 1.07335(11)
H13D H -0.18760 0.06050 1.04350
H13H H 0.04350 -0.18760 1.06050
H14D H -0.20790 0.08520 0.99550
H14H H -0.00450 -0.20790 1.08520
H15D H -0.15590 0.09990 1.01570
H15H H 0.01570 -0.15590 1.09990
C16D C -0.13384(12) 0.04943(10) 0.91366(11)
C16H C -0.08634(12) -0.13384(10) 1.04943(11)
H16D H -0.11900 0.02400 0.89410
H16H H -0.10590 -0.11900 1.02400
H17D H -0.11090 0.07600 0.91780
H17H H -0.08220 -0.11090 1.07600
H18D H -0.16290 0.06130 0.89750
H18H H -0.10250 -0.16290 1.06130
C17D C -0.19432(13) -0.02603(11) 0.96308(9)
C17H C -0.03692(13) -0.19432(11) 0.97397(9)
H19D H -0.20410 -0.04040 0.99380
H19H H -0.00620 -0.20410 0.95960
H20D H -0.17900 -0.05070 0.94290
H20H H -0.05710 -0.17900 0.94930
H21D H -0.22280 -0.01330 0.94650
H21H H -0.05350 -0.22280 0.98670
#END

data_CSD_CIF_SOTSAW
_audit_creation_date 2009-07-30
_audit_creation_method CSD-ConQuest-V1
_database_code_CSD SOTSAW
_database_code_depnum_ccdc_archive 'CCDC 610330'
_chemical_formula_sum 'C51 H63 Cl1 Hf1 N6 Si3'
_chemical_formula_moiety
;
C51 H63 Cl1 Hf1 N6 Si3
;
_journal_coden_Cambridge 155
_journal_volume 362
_journal_year 2009
_journal_page_first 583
_journal_name_full 'Inorg.Chim.Acta '
loop_
_publ_author_name
"Yong Zhang"
"Jian-Ren Xie"
"Jian-Ping Guo"
"Xue-Hong Wei"
"Shu-Ping Huang"
"Dian-Sheng Liu"
_chemical_name_systematic
;
tris(N-Benzyl-N'-(trimethylsilyl)benzamidinato-N,N')-chloro-hafnium(iv)
;
_cell_volume  20519.065
_exptl_crystal_colour 'colorless'
_exptl_crystal_density_diffrn 1.37
_exptl_crystal_description 'block'
_diffrn_ambient_temperature 293
#These two values have been output from a single CSD field.
_refine_ls_R_factor_gt 0.0268
_refine_ls_wR_factor_gt 0.0268
_symmetry_cell_setting cubic
_symmetry_space_group_name_H-M 'I -4 3 d'
_symmetry_Int_Tables_number 220
loop_
_symmetry_equiv_pos_site_id
_symmetry_equiv_pos_as_xyz
1 x,y,z
2 1/2-x,-y,1/2+z
3 -x,1/2+y,1/2-z
4 1/2+x,1/2-y,-z
5 z,x,y
6 1/2+z,1/2-x,-y
7 1/2-z,-x,1/2+y
8 -z,1/2+x,1/2-y
9 y,z,x
10 -y,1/2+z,1/2-x
11 1/2+y,1/2-z,-x
12 1/2-y,-z,1/2+x
13 1/4+y,1/4+x,1/4+z
14 1/4-y,3/4-x,3/4+z
15 3/4+y,1/4-x,3/4-z
16 3/4-y,3/4+x,1/4-z
17 1/4+x,1/4+z,1/4+y
18 3/4-x,3/4+z,1/4-y
19 1/4-x,3/4-z,3/4+y
20 3/4+x,1/4-z,3/4-y
21 1/4+z,1/4+y,1/4+x
22 3/4+z,1/4-y,3/4-x
23 3/4-z,3/4+y,1/4-x
24 1/4-z,3/4-y,3/4+x
25 1/2+x,1/2+y,1/2+z
26 -x,1/2-y,z
27 1/2-x,y,-z
28 x,-y,1/2-z
29 1/2+z,1/2+x,1/2+y
30 z,-x,1/2-y
31 -z,1/2-x,y
32 1/2-z,x,-y
33 1/2+y,1/2+z,1/2+x
34 1/2-y,z,-x
35 y,-z,1/2-x
36 -y,1/2-z,x
37 3/4+y,3/4+x,3/4+z
38 3/4-y,1/4-x,1/4+z
39 1/4+y,3/4-x,1/4-z
40 1/4-y,1/4+x,3/4-z
41 3/4+x,3/4+z,3/4+y
42 1/4-x,1/4+z,3/4-y
43 3/4-x,1/4-z,1/4+y
44 1/4+x,3/4-z,1/4-y
45 3/4+z,3/4+y,3/4+x
46 1/4+z,3/4-y,1/4-x
47 1/4-z,1/4+y,3/4-x
48 3/4-z,1/4-y,1/4+x
_cell_length_a 27.377(2)
_cell_length_b 27.377(2)
_cell_length_c 27.377(2)
_cell_angle_alpha 90
_cell_angle_beta 90
_cell_angle_gamma 90
_cell_formula_units_Z 16
loop_
_atom_type_symbol
_atom_type_radius_bond
C 0.68
H 0.23
Cl 0.99
Hf 1.75
N 0.68
Si 1.20
loop_
_atom_site_label
_atom_site_type_symbol
_atom_site_fract_x
_atom_site_fract_y
_atom_site_fract_z
Hf1 Hf 0.973443(5) -0.026557(5) -0.026557(5)
Si1 Si 0.84942(4) 0.02381(5) -0.02568(5)
Cl1 Cl 0.92163(4) -0.07837(4) -0.07837(4)
N1 N 0.96309(12) -0.01119(12) 0.05434(12)
N2 N 0.90360(12) 0.00279(12) 0.00106(13)
C1 C 0.98142(16) -0.03128(16) 0.09943(14)
H1 H 0.99570 -0.06290 0.09220
H2 H 0.95380 -0.03690 0.12090
C2 C 1.01856(17) -0.00192(19) 0.12723(16)
C3 C 1.0511(3) -0.0272(3) 0.1566(3)
H3 H 1.05120 -0.06120 0.15670
C4 C 1.0833(4) -0.0016(4) 0.1855(3)
H4 H 1.10420 -0.01870 0.20620
C5 C 1.0852(3) 0.0484(4) 0.1846(3)
H5 H 1.10750 0.06500 0.20410
C6 C 1.0539(2) 0.0738(3) 0.1547(2)
H6 H 1.05480 0.10770 0.15380
C7 C 1.02078(19) 0.04799(19) 0.12558(18)
H7 H 1.00000 0.06500 0.10480
C8 C 0.91631(16) -0.00203(16) 0.04771(16)
C9 C 0.88038(15) 0.00145(17) 0.08910(15)
C10 C 0.88577(17) 0.03664(18) 0.12462(17)
H8 H 0.91240 0.05770 0.12380
C11 C 0.85128(19) 0.0408(2) 0.16173(18)
H9 H 0.85490 0.06480 0.18550
C12 C 0.81222(19) 0.0098(2) 0.16341(19)
H10 H 0.78940 0.01270 0.18840
C13 C 0.80649(16) -0.0256(2) 0.12830(17)
H11 H 0.77990 -0.04670 0.12960
C14 C 0.84050(16) -0.02985(19) 0.09095(16)
H12 H 0.83660 -0.05370 0.06710
C15 C 0.82084(19) 0.0731(2) 0.0117(2)
H13 H 0.84410 0.09880 0.01700
H14 H 0.81070 0.06000 0.04260
H15 H 0.79290 0.08590 -0.00520
C16 C 0.86577(19) 0.0494(2) -0.08613(18)
H16 H 0.88850 0.07580 -0.08190
H17 H 0.83690 0.06120 -0.10200
H18 H 0.88050 0.02430 -0.10580
C17 C 0.80524(16) -0.0263(2) -0.03694(19)
H19 H 0.82050 -0.05120 -0.05630
H20 H 0.77740 -0.01370 -0.05400
H21 H 0.79500 -0.03990 -0.00630
Si1D Si 0.97432(4) -0.15058(5) 0.02381(5)
Si1H Si 1.02381(4) -0.02568(5) -0.15058(5)
N1D N 1.05434(12) -0.03691(12) -0.01119(12)
N1H N 0.98881(12) 0.05434(12) -0.03691(12)
N2D N 1.00106(12) -0.09640(12) 0.00279(13)
N2H N 1.00279(12) 0.00106(12) -0.09640(13)
C1D C 1.09943(16) -0.01858(16) -0.03128(14)
C1H C 0.96872(16) 0.09943(16) -0.01858(14)
H1D H 1.09220 -0.00430 -0.06290
H1H H 0.93710 0.09220 -0.00430
H2D H 1.12090 -0.04620 -0.03690
H2H H 0.96310 0.12090 -0.04620
C2D C 1.12723(17) 0.01856(19) -0.00192(16)
C2H C 0.99808(17) 0.12723(19) 0.01856(16)
C3D C 1.1566(3) 0.0511(3) -0.0272(3)
C3H C 0.9728(3) 0.1566(3) 0.0511(3)
H3D H 1.15670 0.05120 -0.06120
H3H H 0.93880 0.15670 0.05120
C4D C 1.1855(4) 0.0833(4) -0.0016(3)
C4H C 0.9984(4) 0.1855(4) 0.0833(3)
H4D H 1.20620 0.10420 -0.01870
H4H H 0.98130 0.20620 0.10420
C5D C 1.1846(3) 0.0852(4) 0.0484(3)
C5H C 1.0484(3) 0.1846(4) 0.0852(3)
H5D H 1.20410 0.10750 0.06500
H5H H 1.06500 0.20410 0.10750
C6D C 1.1547(2) 0.0539(3) 0.0738(2)
C6H C 1.0738(2) 0.1547(3) 0.0539(2)
H6D H 1.15380 0.05480 0.10770
H6H H 1.10770 0.15380 0.05480
C7D C 1.12558(19) 0.02078(19) 0.04799(18)
C7H C 1.04799(19) 0.12558(19) 0.02078(18)
H7D H 1.10480 0.00000 0.06500
H7H H 1.06500 0.10480 0.00000
C8D C 1.04771(16) -0.08369(16) -0.00203(16)
C8H C 0.99797(16) 0.04771(16) -0.08369(16)
C9D C 1.08910(15) -0.11962(17) 0.00145(15)
C9H C 1.00145(15) 0.08910(17) -0.11962(15)
C10D C 1.12462(17) -0.11423(18) 0.03664(17)
C10H C 1.03664(17) 0.12462(18) -0.11423(17)
H8D H 1.12380 -0.08760 0.05770
H8H H 1.05770 0.12380 -0.08760
C11D C 1.16173(19) -0.14872(20) 0.04080(18)
C11H C 1.04080(19) 0.16173(20) -0.14872(18)
H9D H 1.18550 -0.14510 0.06480
H9H H 1.06480 0.18550 -0.14510
C12D C 1.16341(19) -0.18778(20) 0.00980(19)
C12H C 1.00980(19) 0.16341(20) -0.18778(19)
H10D H 1.18840 -0.21060 0.01270
H10H H 1.01270 0.18840 -0.21060
C13D C 1.12830(16) -0.19351(20) -0.02560(17)
C13H C 0.97440(16) 0.1283(2) -0.19351(17)
H11D H 1.12960 -0.22010 -0.04670
H11H H 0.95330 0.12960 -0.22010
C14D C 1.09095(16) -0.15950(19) -0.02985(16)
C14H C 0.97015(16) 0.09095(19) -0.15950(16)
H12D H 1.06710 -0.16340 -0.05370
H12H H 0.94630 0.06710 -0.16340
C15D C 1.01170(19) -0.17916(20) 0.0731(2)
C15H C 1.07310(19) 0.0117(2) -0.17916(20)
H13D H 1.01700 -0.15590 0.09880
H13H H 1.09880 0.01700 -0.15590
H14D H 1.04260 -0.18930 0.06000
H14H H 1.06000 0.04260 -0.18930
H15D H 0.99480 -0.20710 0.08590
H15H H 1.08590 -0.00520 -0.20710
C16D C 0.91387(19) -0.13423(20) 0.04940(18)
C16H C 1.04940(19) -0.08613(20) -0.13423(18)
H16D H 0.91810 -0.11150 0.07580
H16H H 1.07580 -0.08190 -0.11150
H17D H 0.89800 -0.16310 0.06120
H17H H 1.06120 -0.10200 -0.16310
H18D H 0.89420 -0.11950 0.02430
H18H H 1.02430 -0.10580 -0.11950
C17D C 0.96306(16) -0.19476(20) -0.02630(19)
C17H C 0.97370(16) -0.03694(20) -0.19476(19)
H19D H 0.94370 -0.17950 -0.05120
H19H H 0.94880 -0.05630 -0.17950
H20D H 0.94600 -0.22260 -0.01370
H20H H 0.98630 -0.05400 -0.22260
H21D H 0.99370 -0.20500 -0.03990
H21H H 0.96010 -0.00630 -0.20500
#END

data_CSD_CIF_TAZBFE
_audit_creation_date 1978-10-27
_audit_creation_method CSD-ConQuest-V1
_database_code_CSD TAZBFE
_database_code_depnum_ccdc_archive 'CCDC 1267334'
_chemical_formula_sum 'C21 H24 Fe1 N7'
_chemical_formula_moiety
;
C21 H24 Fe1 N7
;
_journal_coden_Cambridge 9
_journal_volume 17
_journal_year 1978
_journal_page_first 1288
_journal_name_full 'Inorg.Chem. '
loop_
_publ_author_name
"P.G.Sim"
"E.Sinn"
_chemical_name_systematic
;
(tris(1-(2-Azoyl)-2-azabuten-4-yl)amine)-iron(iii)
;
_cell_volume   8069.802
_exptl_crystal_density_diffrn 1.414
_diffrn_ambient_temperature ?
_diffrn_special_details
;
The study was carried out at room temperature,in the range 283-303K

;
#These two values have been output from a single CSD field.
_refine_ls_R_factor_gt 0.025
_refine_ls_wR_factor_gt 0.025
_symmetry_cell_setting cubic
_symmetry_space_group_name_H-M 'I -4 3 d'
_symmetry_Int_Tables_number 220
loop_
_symmetry_equiv_pos_site_id
_symmetry_equiv_pos_as_xyz
1 x,y,z
2 1/2+x,1/2+y,1/2+z
3 z,x,y
4 y,z,x
5 1/2+z,1/2+x,1/2+y
6 1/2+y,1/2+z,1/2+x
7 1/2+x,1/2-y,-z
8 x,-y,1/2-z
9 1/2+z,1/2-x,-y
10 1/2+y,1/2-z,-x
11 z,-x,1/2-y
12 y,-z,1/2-x
13 -x,1/2+y,1/2-z
14 1/2-x,y,-z
15 -z,1/2+x,1/2-y
16 -y,1/2+z,1/2-x
17 1/2-z,x,-y
18 1/2-y,z,-x
19 1/2-x,-y,1/2+z
20 -x,1/2-y,z
21 1/2-z,-x,1/2+y
22 1/2-y,-z,1/2+x
23 -z,1/2-x,y
24 -y,1/2-z,x
25 1/4+y,1/4+x,1/4+z
26 3/4+y,3/4+x,3/4+z
27 1/4+x,1/4+z,1/4+y
28 1/4+z,1/4+y,1/4+x
29 3/4+x,3/4+z,3/4+y
30 3/4+z,3/4+y,3/4+x
31 3/4-y,3/4+x,1/4-z
32 1/4-y,1/4+x,3/4-z
33 3/4-x,3/4+z,1/4-y
34 3/4-z,3/4+y,1/4-x
35 1/4-x,1/4+z,3/4-y
36 1/4-z,1/4+y,3/4-x
37 3/4+y,1/4-x,3/4-z
38 1/4+y,3/4-x,1/4-z
39 3/4+x,1/4-z,3/4-y
40 3/4+z,1/4-y,3/4-x
41 1/4+x,3/4-z,1/4-y
42 1/4+z,3/4-y,1/4-x
43 1/4-y,3/4-x,3/4+z
44 3/4-y,1/4-x,1/4+z
45 1/4-x,3/4-z,3/4+y
46 1/4-z,3/4-y,3/4+x
47 3/4-x,1/4-z,1/4+y
48 3/4-z,1/4-y,1/4+x
_cell_length_a 20.058(2)
_cell_length_b 20.058(2)
_cell_length_c 20.058(2)
_cell_angle_alpha 90
_cell_angle_beta 90
_cell_angle_gamma 90
_cell_formula_units_Z 16
loop_
_atom_type_symbol
_atom_type_radius_bond
C 0.68
H 0.23
Fe 1.34
N 0.68
loop_
_atom_site_label
_atom_site_type_symbol
_atom_site_fract_x
_atom_site_fract_y
_atom_site_fract_z
Fe1 Fe 0.16288 0.16290 0.16290
N1 N 0.25930 0.15900 0.16130
N2 N 0.17440 0.06440 0.16540
N3 N 0.06780 0.06780 0.06780
C1 C 0.28510 0.09550 0.16570
C2 C 0.35420 0.09910 0.16610
C3 C 0.37090 0.16580 0.16120
C4 C 0.31150 0.20110 0.15810
C5 C 0.23570 0.04550 0.16840
C6 C 0.12010 0.01570 0.16660
C7 C 0.09030 0.00660 0.09740
H1 H 0.38100 0.06600 0.16400
H2 H 0.42000 0.18700 0.15700
H3 H 0.30100 0.24700 0.15600
H4 H 0.24500 0.00200 0.17200
H5 H 0.13500 -0.03000 0.18400
H6 H 0.08400 0.03100 0.19300
H7 H 0.05300 -0.02400 0.10200
H8 H 0.12900 -0.01100 0.06800
N1B N 0.16130 0.25930 0.15900
N1C N 0.15900 0.16130 0.25930
N2B N 0.16540 0.17440 0.06440
N2C N 0.06440 0.16540 0.17440
C7B C 0.09740 0.09030 0.00660
C7C C 0.00660 0.09740 0.09030
C1B C 0.16570 0.28510 0.09550
C4B C 0.15810 0.31150 0.20110
C1C C 0.09550 0.16570 0.28510
C4C C 0.20110 0.15810 0.31150
C5B C 0.16840 0.23570 0.04550
C6B C 0.16660 0.12010 0.01570
C5C C 0.04550 0.16840 0.23570
C6C C 0.01570 0.16660 0.12010
H7B H 0.10200 0.05300 -0.02400
H8B H 0.06800 0.12900 -0.01100
H7C H -0.02400 0.10200 0.05300
H8C H -0.01100 0.06800 0.12900
C2B C 0.16610 0.35420 0.09910
C3B C 0.16120 0.37090 0.16580
H3B H 0.15600 0.30100 0.24700
C2C C 0.09910 0.16610 0.35420
C3C C 0.16580 0.16120 0.37090
H3C H 0.24700 0.15600 0.30100
H4B H 0.17200 0.24500 0.00200
H5B H 0.18400 0.13500 -0.03000
H6B H 0.19300 0.08400 0.03100
H4C H 0.00200 0.17200 0.24500
H5C H -0.03000 0.18400 0.13500
H6C H 0.03100 0.19300 0.08400
H1B H 0.16400 0.38100 0.06600
H2B H 0.15700 0.42000 0.18700
H1C H 0.06600 0.16400 0.38100
H2C H 0.18700 0.15700 0.42000
#END

data_CSD_CIF_TEHSUV
_audit_creation_date 2006-07-20
_audit_creation_method CSD-ConQuest-V1
_database_code_CSD TEHSUV
_database_code_depnum_ccdc_archive 'CCDC 290332'
_chemical_formula_sum 'C24 H40 B1 N6 Na1 O3'
_chemical_formula_moiety
;
C24 H40 B1 N6 Na1 O3
;
_journal_coden_Cambridge 182
_journal_year 2006
_journal_page_first 1872
_journal_name_full 'Chem.Commun. '
loop_
_publ_author_name
"M.H.Chisholm"
"J.C.Gallucci"
"G.Yaman"
_chemical_name_systematic
;
(hydrogen 
tris(3-(2-methoxy-1,1-dimethylethyl)pyrazolyl)borato-N,N',N'',O,O',O'')-sodium
(i)
;
_cell_volume  10729.519
_exptl_crystal_colour 'colorless'
_exptl_crystal_density_diffrn 1.224
_exptl_special_details
;
Program problems prevent the inclusion of hydrogen atoms within this 
structure. Hydrogen atoms can be obtained from the deposited cif
;
_exptl_crystal_description 'chunk'
_diffrn_ambient_temperature 200
#These two values have been output from a single CSD field.
_refine_ls_R_factor_gt 0.0269
_refine_ls_wR_factor_gt 0.0269
_symmetry_cell_setting cubic
_symmetry_space_group_name_H-M 'I -4 3 d'
_symmetry_Int_Tables_number 220
loop_
_symmetry_equiv_pos_site_id
_symmetry_equiv_pos_as_xyz
1 x,y,z
2 1/4+y,3/4-x,1/4-z
3 1/2+x,1/2-y,-z
4 z,x,y
5 -x,1/2-y,z
6 3/4-y,1/4-x,1/4+z
7 1/4+x,3/4-z,1/4-y
8 3/4-y,3/4+x,1/4-z
9 1/2-x,y,-z
10 -z,1/2-x,y
11 1/4+y,1/4+x,1/4+z
12 3/4-x,3/4+z,1/4-y
13 1/2+z,1/2-x,-y
14 3/4+x,3/4+z,3/4+y
15 1/2-z,x,-y
16 1/4-x,3/4-z,3/4+y
17 y,z,x
18 1/4+z,3/4-y,1/4-x
19 1/4-z,3/4-y,3/4+x
20 y,-z,1/2-x
21 1/4+z,1/4+y,1/4+x
22 -y,1/2+z,1/2-x
23 -y,1/2-z,x
24 3/4-z,3/4+y,1/4-x
25 1/2+x,1/2+y,1/2+z
26 3/4+y,1/4-x,3/4-z
27 x,-y,1/2-z
28 1/2+z,1/2+x,1/2+y
29 1/2-x,-y,1/2+z
30 1/4-y,3/4-x,3/4+z
31 3/4+x,1/4-z,3/4-y
32 1/4-y,1/4+x,3/4-z
33 -x,1/2+y,1/2-z
34 1/2-z,-x,1/2+y
35 3/4+y,3/4+x,3/4+z
36 1/4-x,1/4+z,3/4-y
37 z,-x,1/2-y
38 1/4+x,1/4+z,1/4+y
39 -z,1/2+x,1/2-y
40 3/4-x,1/4-z,1/4+y
41 1/2+y,1/2+z,1/2+x
42 3/4+z,1/4-y,3/4-x
43 3/4-z,1/4-y,1/4+x
44 1/2+y,1/2-z,-x
45 3/4+z,3/4+y,3/4+x
46 1/2-y,z,-x
47 1/2-y,-z,1/2+x
48 1/4-z,1/4+y,3/4-x
_cell_length_a 22.056(2)
_cell_length_b 22.056(2)
_cell_length_c 22.056(2)
_cell_angle_alpha 90
_cell_angle_beta 90
_cell_angle_gamma 90
_cell_formula_units_Z 16
loop_
_atom_type_symbol
_atom_type_radius_bond
C 0.68
H 0.23
B 0.83
N 0.68
Na 1.41
O 0.68
loop_
_atom_site_label
_atom_site_type_symbol
_atom_site_fract_x
_atom_site_fract_y
_atom_site_fract_z
Na1 Na 0.96142(3) 0.46142(3) 0.03858(3)
O1 O 1.00093(7) 0.42158(7) 0.13562(6)
N1 N 1.09190(7) 0.51257(7) -0.00849(7)
N2 N 1.06953(7) 0.47235(6) 0.03267(7)
C1 C 1.11732(8) 0.44900(8) 0.06160(8)
C2 C 1.17127(8) 0.47382(9) 0.03894(9)
H1? H 1.21160 0.46500 0.05140
C3 C 1.15296(8) 0.51368(9) -0.00524(9)
H2? H 1.17900 0.53800 -0.02950
C4 C 1.10833(9) 0.40162(9) 0.11092(9)
C5 C 1.16826(10) 0.39217(11) 0.14512(11)
H3? H 1.16310 0.36020 0.17550
H4? H 1.17990 0.43000 0.16530
H5? H 1.20000 0.38030 0.11640
C6 C 1.08924(11) 0.34105(10) 0.08273(10)
H6? H 1.08010 0.31190 0.11500
H7? H 1.12230 0.32530 0.05760
H8? H 1.05310 0.34720 0.05760
C7 C 1.06199(10) 0.42152(10) 0.15821(9)
H9? H 1.06440 0.39390 0.19350
H10? H 1.07240 0.46280 0.17230
C8 C 0.95922(11) 0.42307(11) 0.18444(10)
H11? H 0.91780 0.42510 0.16850
H12? H 0.96720 0.45880 0.20960
H13? H 0.96380 0.38630 0.20900
B1 B 1.05020(9) 0.55020(9) -0.05020(9)
H14 H 1.07640 0.57640 -0.07640
O1LA O 0.86438(7) 0.50093(7) 0.07842(6)
C7LA C 0.84179(10) 0.56199(10) 0.07848(9)
C4LA C 0.88908(9) 0.60833(9) 0.09838(9)
C1LA C 0.93840(8) 0.61732(8) 0.05100(8)
N2LA N 0.96733(7) 0.56953(6) 0.02765(7)
O1QA O 0.92158(7) 0.36438(7) -0.00093(6)
C7QA C 0.92152(10) 0.34179(10) -0.06199(9)
C4QA C 0.90162(9) 0.38908(9) -0.10833(9)
C1QA C 0.94900(8) 0.43840(8) -0.11732(8)
N2QA N 0.97235(7) 0.46733(6) -0.06953(7)
N1QA N 1.01257(7) 0.50849(7) -0.09190(7)
C3QA C 1.01368(8) 0.50524(9) -0.15296(9)
C2QA C 0.97382(8) 0.46106(9) -0.17127(9)
N1LA N 1.00849(7) 0.59190(7) -0.01257(7)
C3LA C 1.00524(8) 0.65296(9) -0.01368(9)
C2LA C 0.96106(8) 0.67127(9) 0.02618(9)
C5QA C 0.89217(10) 0.35488(11) -0.16826(11)
C6QA C 0.84105(11) 0.41727(10) -0.08924(10)
C8QA C 0.92307(11) 0.31556(11) 0.04078(10)
C5LA C 0.85488(10) 0.66826(11) 0.10783(11)
C6LA C 0.91727(11) 0.58924(10) 0.15895(10)
C8LA C 0.81556(11) 0.45922(11) 0.07693(10)
#END

data_CSD_CIF_TODDEY
_audit_creation_date 2019-02-14
_audit_creation_method CSD-ConQuest-V1
_database_code_CSD TODDEY
_database_code_depnum_ccdc_archive 'CCDC 1849184'
_chemical_formula_sum 'C78 H106.5 Mn11 N12 Na4 O52.75'
_chemical_formula_moiety
;
C69 H72 Mn11 N9 O43 4-,3(C3 H7 N1 O1),6.75(H2 O1),4(Na1 1+)
;
_journal_coden_Cambridge 1147
_journal_volume 19
_journal_year 2019
_journal_page_first 1954
_journal_name_full 'Cryst.Growth Des. '
loop_
_publ_author_name
"V.Marzaroli"
"G.Spigolon"
"G.Lococciolo"
"M.Quaretti"
"C.Salviati"
"J.W.Kampf"
"Giulia Licini"
"L.Marchio"
"V.L.Pecoraro"
"M.Tegoni"
_chemical_name_systematic
;
tetra-sodium 
hexakis(\m-N,2-dioxidobenzamido)-nonakis(\m-acetato)-tetrakis(\m-oxido)-tris(N
,N-dimethylformamide)-di-manganese(ii)-nona-manganese(iii) 
N,N-dimethylformamide solvate hydrate
;
_cell_volume  44863.756
_exptl_crystal_colour 'brown'
_exptl_crystal_density_diffrn 1.63
_exptl_crystal_description 'prism'
_diffrn_ambient_temperature 293
#These two values have been output from a single CSD field.
_refine_ls_R_factor_gt 0.0432
_refine_ls_wR_factor_gt 0.0432
_symmetry_cell_setting cubic
_symmetry_space_group_name_H-M 'I -4 3 d'
_symmetry_Int_Tables_number 220
loop_
_symmetry_equiv_pos_site_id
_symmetry_equiv_pos_as_xyz
1 x,y,z
2 -x,1/2-y,z
3 x,-y,1/2-z
4 1/2-x,y,-z
5 z,x,y
6 y,z,x
7 -z,1/2-x,y
8 1/2-y,z,-x
9 z,-x,1/2-y
10 -y,1/2-z,x
11 1/2-z,x,-y
12 y,-z,1/2-x
13 1/4+y,1/4+x,1/4+z
14 3/4-y,1/4-x,1/4+z
15 1/4-y,1/4+x,3/4-z
16 1/4+y,3/4-x,1/4-z
17 1/4+x,1/4+z,1/4+y
18 1/4+z,1/4+y,1/4+x
19 3/4-x,1/4-z,1/4+y
20 1/4+z,3/4-y,1/4-x
21 1/4-x,1/4+z,3/4-y
22 3/4-z,1/4-y,1/4+x
23 1/4+x,3/4-z,1/4-y
24 1/4-z,1/4+y,3/4-x
25 1/2+x,1/2+y,1/2+z
26 1/2-x,-y,1/2+z
27 1/2+x,1/2-y,-z
28 -x,1/2+y,1/2-z
29 1/2+z,1/2+x,1/2+y
30 1/2+y,1/2+z,1/2+x
31 1/2-z,-x,1/2+y
32 -y,1/2+z,1/2-x
33 1/2+z,1/2-x,-y
34 1/2-y,-z,1/2+x
35 -z,1/2+x,1/2-y
36 1/2+y,1/2-z,-x
37 3/4+y,3/4+x,3/4+z
38 1/4-y,3/4-x,3/4+z
39 3/4-y,3/4+x,1/4-z
40 3/4+y,1/4-x,3/4-z
41 3/4+x,3/4+z,3/4+y
42 3/4+z,3/4+y,3/4+x
43 1/4-x,3/4-z,3/4+y
44 3/4+z,1/4-y,3/4-x
45 3/4-x,3/4+z,1/4-y
46 1/4-z,3/4-y,3/4+x
47 3/4+x,1/4-z,3/4-y
48 3/4-z,3/4+y,1/4-x
_cell_length_a 35.533(2)
_cell_length_b 35.533(2)
_cell_length_c 35.533(2)
_cell_angle_alpha 90
_cell_angle_beta 90
_cell_angle_gamma 90
_cell_formula_units_Z 16
loop_
_atom_type_symbol
_atom_type_radius_bond
C 0.68
H 0.23
Mn 1.61
N 0.68
Na 1.66
O 0.68
loop_
_atom_site_label
_atom_site_type_symbol
_atom_site_fract_x
_atom_site_fract_y
_atom_site_fract_z
Mn1 Mn 0.46117(3) 0.46457(3) 0.00299(3)
Mn2 Mn 0.54786(3) 0.45214(3) -0.04786(3)
Mn3 Mn 0.44667(3) 0.55333(3) 0.05333(3)
Mn4 Mn 0.38702(3) 0.42886(3) 0.04154(3)
Mn5 Mn 0.42088(3) 0.39793(3) -0.04013(3)
O1 O 0.38741(14) 0.54369(15) 0.06445(16)
O2 O 0.38600(16) 0.37300(15) 0.04738(16)
O3 O 0.43324(13) 0.49539(13) 0.03762(14)
O4 O 0.53217(16) 0.40084(17) -0.07683(17)
O5 O 0.34095(15) 0.42699(17) 0.00256(16)
O6 O 0.49820(13) 0.50180(13) 0.00180(13)
O7 O 0.42357(13) 0.42786(13) 0.00364(14)
C1 C 0.4854(2) 0.3565(2) -0.0941(2)
O8 O 0.41936(14) 0.36574(15) -0.08145(16)
O9 O 0.36493(14) 0.39818(16) -0.04795(16)
C2 C 0.4051(2) 0.3473(2) 0.0304(2)
O10 O 0.49264(13) 0.43348(13) -0.02726(14)
C3 C 0.3379(2) 0.4113(2) -0.0280(2)
O11 O 0.44553(14) 0.49691(14) -0.04917(13)
O12 O 0.41764(18) 0.35000(15) -0.00147(17)
O13 O 0.35012(14) 0.43357(15) 0.07917(15)
C4 C 0.3366(2) 0.4993(2) 0.0718(2)
C5 C 0.3263(2) 0.4623(2) 0.0799(2)
C6 C 0.4122(4) 0.3126(3) 0.0517(3)
H1 H 0.43590 0.31460 0.06450
H2 H 0.41280 0.29160 0.03470
H3 H 0.39250 0.30900 0.06980
C7 C 0.4674(5) 0.3967(4) 0.1571(4)
H4 H 0.45220 0.39430 0.17930
H5 H 0.49320 0.39170 0.16330
H6 H 0.45900 0.37910 0.13840
C8 C 0.3099(2) 0.5276(3) 0.0736(3)
H7 H 0.31690 0.55220 0.06820
C9 C 0.4879(5) 0.4631(5) 0.1589(5)
H8 H 0.48710 0.46080 0.18580
H9 H 0.47930 0.48760 0.15160
H10 H 0.51330 0.45950 0.15030
C10 C 0.5120(3) 0.3345(3) -0.1140(3)
H11 H 0.53730 0.34110 -0.11280
C11 C 0.4987(2) 0.3883(2) -0.0719(2)
C12 C 0.4470(2) 0.3464(2) -0.0971(2)
C13 C 0.4644(3) 0.2945(3) -0.1379(3)
H12 H 0.45730 0.27410 -0.15270
C14 C 0.5015(3) 0.3038(3) -0.1349(3)
H13 H 0.51970 0.28940 -0.14710
C15 C 0.4372(3) 0.3150(3) -0.1190(3)
H14 H 0.41210 0.30790 -0.12090
C16 C 0.3757(2) 0.5100(2) 0.0610(2)
O14 O 0.41976(17) 0.44948(15) -0.08042(15)
C17 C 0.2890(2) 0.4548(3) 0.0906(3)
H15 H 0.28180 0.43050 0.09690
C18 C 0.4365(2) 0.4801(2) -0.0795(2)
C19 C 0.4461(3) 0.4995(3) -0.1162(2)
H16 H 0.45890 0.52280 -0.11100
H17 H 0.46220 0.48350 -0.13080
H18 H 0.42350 0.50460 -0.12990
C20 C 0.2985(3) 0.4052(3) -0.0436(3)
H19 H 0.28110 0.42150 -0.03090
H20 H 0.29110 0.37940 -0.03970
H21 H 0.29830 0.41060 -0.07010
C21 C 0.2733(3) 0.5201(3) 0.0833(4)
H22 H 0.25570 0.53950 0.08420
O15 O 0.42497(18) 0.41840(19) 0.09562(18)
C22 C 0.2628(3) 0.4838(3) 0.0916(4)
H23 H 0.23800 0.47860 0.09790
C23 C 0.4434(3) 0.4416(3) 0.1129(3)
H24 H 0.44250 0.46630 0.10420
N1 N 0.39665(15) 0.48314(16) 0.04630(16)
N2 N 0.47600(16) 0.40228(15) -0.04577(17)
N3 N 0.4641(2) 0.4350(3) 0.1424(2)
Na1 Na 0.36377(10) 0.3777(1) 0.11201(10)
O16 O 0.3960(2) 0.3315(2) 0.1445(3)
H25 H 0.40240 0.31130 0.12960
H26 H 0.38130 0.32010 0.16240
Na2 Na 0.59826(17) 0.40174(17) -0.09826(17)
C24 C 0.5619(11) 0.2647(10) -0.0449(12)
H27 H 0.55060 0.26280 -0.02040
H28 H 0.58010 0.24490 -0.04800
H29 H 0.54270 0.26230 -0.06380
C25 C 0.5738(11) 0.3261(10) -0.0191(10)
H30 H 0.56080 0.31320 0.00070
H31 H 0.55870 0.34670 -0.02790
H32 H 0.59740 0.33560 -0.00980
N4 N 0.5805(15) 0.3013(11) -0.0488(11)
O17 O 0.6107(6) 0.3373(7) -0.0952(6)
C26 C 0.5975(16) 0.3091(11) -0.0801(12)
H33 H 0.60040 0.28780 -0.09510
O18 O 0.4591(6) 0.2809(5) 0.1442(5)
H34 H 0.47500 0.29100 0.12800
H35 H 0.46000 0.29500 0.16400
O19 O 0.50000 0.25000 0.2069(18)
Na3 Na 0.3975(3) 0.6025(3) 0.1025(3)
H36? H 0.50520 0.26780 0.22040
H37? H 0.47760 0.24070 0.21170
Mn1DA Mn 0.49701(3) 0.53883(3) -0.03543(3)
Mn4DA Mn 0.45846(3) 0.61298(3) -0.07114(3)
Mn5DA Mn 0.54013(3) 0.57912(3) -0.10207(3)
O1DA O 0.43555(14) 0.61259(15) 0.04369(16)
O2DA O 0.45262(16) 0.61400(15) -0.12700(16)
O3DA O 0.46238(13) 0.56676(13) -0.00461(14)
O4DA O 0.57683(16) 0.46783(17) -0.09916(17)
O5DA O 0.49744(15) 0.65905(17) -0.07301(16)
O7DA O 0.49636(13) 0.57643(13) -0.07214(14)
C1DA C 0.5941(2) 0.5146(2) -0.1435(2)
O8DA O 0.58145(14) 0.58064(15) -0.13426(16)
O9DA O 0.54795(14) 0.63507(16) -0.10182(16)
C2DA C 0.4696(2) 0.5949(2) -0.1527(2)
O10DA O 0.52726(13) 0.50736(13) -0.06652(14)
C3DA C 0.5280(2) 0.6621(2) -0.0887(2)
O11DA O 0.54917(14) 0.55447(14) -0.00309(13)
O12DA O 0.50147(18) 0.58236(15) -0.15000(17)
O13DA O 0.42083(14) 0.64988(15) -0.06643(15)
C4DA C 0.4282(2) 0.6634(2) -0.0007(2)
C5DA C 0.4201(2) 0.6737(2) -0.0377(2)
C6DA C 0.4483(4) 0.5878(3) -0.1874(3)
H1DA H 0.43550 0.56410 -0.18540
H2DA H 0.46530 0.58720 -0.20840
H3DA H 0.43020 0.60750 -0.19100
C7DA C 0.3429(5) 0.5326(4) -0.1033(4)
H4DA H 0.32070 0.54780 -0.10570
H5DA H 0.33670 0.50680 -0.10830
H6DA H 0.36160 0.54100 -0.12090
C8DA C 0.4264(2) 0.6901(3) 0.0276(3)
H7DA H 0.43180 0.68310 0.05220
C9DA C 0.3411(5) 0.5121(5) -0.0369(5)
H8DA H 0.31420 0.51290 -0.03920
H9DA H 0.34840 0.52070 -0.01240
H10DA H 0.34970 0.48670 -0.04050
C10DA C 0.6140(3) 0.4880(3) -0.1655(3)
H11DA H 0.61280 0.46270 -0.15890
C11DA C 0.5719(2) 0.5013(2) -0.1117(2)
C12DA C 0.5971(2) 0.5530(2) -0.1536(2)
C13DA C 0.6379(3) 0.5356(3) -0.2055(3)
H12DA H 0.65270 0.54270 -0.22590
C14DA C 0.6349(3) 0.4985(3) -0.1962(3)
H13DA H 0.64710 0.48030 -0.21060
C15DA C 0.6190(3) 0.5628(3) -0.1850(3)
H14DA H 0.62090 0.58790 -0.19210
C16DA C 0.4390(2) 0.6243(2) 0.0100(2)
O14DA O 0.58042(17) 0.58024(15) -0.05052(15)
C17DA C 0.4094(2) 0.7110(3) -0.0452(3)
H15DA H 0.40310 0.71820 -0.06950
C18DA C 0.5795(2) 0.5635(2) -0.0199(2)
C19DA C 0.6162(3) 0.5539(3) -0.0005(2)
H16DA H 0.61100 0.54110 0.02280
H17DA H 0.63080 0.53780 -0.01650
H18DA H 0.62990 0.57650 0.00460
C20DA C 0.5436(3) 0.7015(3) -0.0948(3)
H19DA H 0.53090 0.71890 -0.07850
H20DA H 0.53970 0.70890 -0.12060
H21DA H 0.57010 0.70170 -0.08940
C21DA C 0.4167(3) 0.7267(3) 0.0201(4)
H22DA H 0.41580 0.74430 0.03950
O15DA O 0.40438(18) 0.57503(19) -0.08160(18)
C22DA C 0.4084(3) 0.7372(3) -0.0162(4)
H23DA H 0.40210 0.76200 -0.02140
C23DA C 0.3871(3) 0.5566(3) -0.0584(3)
H24DA H 0.39580 0.55750 -0.03370
N1DA N 0.45370(15) 0.60335(16) -0.01686(16)
N2DA N 0.54577(16) 0.52400(15) -0.09772(17)
N3DA N 0.3576(2) 0.5359(3) -0.0650(2)
Mn1EA Mn 0.53543(3) 0.50299(3) 0.03883(3)
Mn4EA Mn 0.57114(3) 0.54154(3) 0.11298(3)
Mn5EA Mn 0.60207(3) 0.45987(3) 0.07912(3)
O1EA O 0.45631(14) 0.56445(15) 0.11259(16)
O2EA O 0.62700(16) 0.54738(15) 0.11400(16)
O3EA O 0.50461(13) 0.53762(13) 0.06676(14)
O4EA O 0.59916(16) 0.42317(17) -0.03217(17)
O5EA O 0.57301(15) 0.50256(17) 0.15905(16)
O7EA O 0.57214(13) 0.50364(13) 0.07643(14)
C1EA C 0.6435(2) 0.4059(2) 0.0146(2)
O8EA O 0.63426(14) 0.41855(15) 0.08064(16)
O9EA O 0.60182(14) 0.45205(16) 0.13507(16)
C2EA C 0.6527(2) 0.5304(2) 0.0949(2)
O10EA O 0.56652(13) 0.47274(13) 0.00736(14)
C3EA C 0.5887(2) 0.4720(2) 0.1621(2)
O11EA O 0.50309(14) 0.45083(14) 0.05447(13)
O12EA O 0.65000(18) 0.49853(15) 0.08236(17)
O13EA O 0.56643(14) 0.57917(15) 0.14988(15)
C4EA C 0.5007(2) 0.5718(2) 0.1634(2)
C5EA C 0.5377(2) 0.5799(2) 0.1737(2)
C6EA C 0.6874(4) 0.5517(3) 0.0878(3)
H1EA H 0.68540 0.56450 0.06410
H2EA H 0.70840 0.53470 0.08720
H3EA H 0.69100 0.56980 0.10750
C7EA C 0.6033(5) 0.6571(4) 0.0326(4)
H4EA H 0.60570 0.67930 0.04780
H5EA H 0.60830 0.66330 0.00680
H6EA H 0.62090 0.63840 0.04100
C8EA C 0.4724(2) 0.5736(3) 0.1901(3)
H7EA H 0.44780 0.56820 0.18310
C9EA C 0.5369(5) 0.6589(5) 0.0121(5)
H8EA H 0.53920 0.68580 0.01290
H9EA H 0.51240 0.65160 0.02070
H10EA H 0.54050 0.65030 -0.01330
C10EA C 0.6655(3) 0.3860(3) -0.0120(3)
H11EA H 0.65890 0.38720 -0.03730
C11EA C 0.6117(2) 0.4281(2) 0.0013(2)
C12EA C 0.6536(2) 0.4029(2) 0.0530(2)
C13EA C 0.7055(3) 0.3621(3) 0.0356(3)
H12EA H 0.72590 0.34730 0.04270
C14EA C 0.6962(3) 0.3651(3) -0.0015(3)
H13EA H 0.71060 0.35290 -0.01970
C15EA C 0.6850(3) 0.3810(3) 0.0628(3)
H14EA H 0.69210 0.37910 0.08790
C16EA C 0.4900(2) 0.5610(2) 0.1243(2)
O14EA O 0.55052(17) 0.41958(15) 0.08024(15)
C17EA C 0.5452(2) 0.5906(3) 0.2110(3)
H15EA H 0.56950 0.59690 0.21820
C18EA C 0.5199(2) 0.4205(2) 0.0635(2)
C19EA C 0.5005(3) 0.3838(3) 0.0539(2)
H16EA H 0.47720 0.38900 0.04110
H17EA H 0.51650 0.36920 0.03780
H18EA H 0.49540 0.37010 0.07650
C20EA C 0.5948(3) 0.4564(3) 0.2015(3)
H19EA H 0.57850 0.46910 0.21890
H20EA H 0.62060 0.46030 0.20890
H21EA H 0.58940 0.42990 0.20170
C21EA C 0.4799(3) 0.5833(3) 0.2267(4)
H22EA H 0.46050 0.58420 0.24430
O15EA O 0.58160(18) 0.59562(19) 0.07503(18)
C22EA C 0.5162(3) 0.5916(3) 0.2372(4)
H23EA H 0.52140 0.59790 0.26200
C23EA C 0.5584(3) 0.6129(3) 0.0566(3)
H24EA H 0.53370 0.60420 0.05750
N1EA N 0.51686(15) 0.54630(16) 0.10335(16)
N2EA N 0.59772(16) 0.45423(15) 0.02400(17)
N3EA N 0.5650(2) 0.6424(3) 0.0359(2)
#END

data_CSD_CIF_TOKYIB
_audit_creation_date 1997-04-29
_audit_creation_method CSD-ConQuest-V1
_database_code_CSD TOKYIB
_chemical_formula_sum 'C30 H42 Mo1 N4'
_chemical_formula_moiety
;
C30 H42 Mo1 N4
;
_journal_coden_Cambridge 4
_journal_volume 118
_journal_year 1996
_journal_page_first 8623
_journal_name_full 'J.Am.Chem.Soc. '
loop_
_publ_author_name
"C.E.Laplaza"
"M.J.A.Johnson"
"J.C.Peters"
"A.L.Odom"
"E.Kim"
"C.C.Cummins"
"G.N.George"
"I.J.Pickering"
_chemical_name_systematic
;
Nitrido-tris(t-butyl(phenyl)amido)-molybdenum(iii)
;
_cell_volume  11825.860
_exptl_crystal_colour 'yellow-orange'
_exptl_crystal_density_diffrn 1.246
_diffrn_ambient_temperature 208
#These two values have been output from a single CSD field.
_refine_ls_R_factor_gt 0.0247
_refine_ls_wR_factor_gt 0.0247
_symmetry_cell_setting cubic
_symmetry_space_group_name_H-M 'I -4 3 d'
_symmetry_Int_Tables_number 220
loop_
_symmetry_equiv_pos_site_id
_symmetry_equiv_pos_as_xyz
1 x,y,z
2 1/4+y,3/4-x,1/4-z
3 1/2+x,1/2-y,-z
4 z,x,y
5 -x,1/2-y,z
6 3/4-y,1/4-x,1/4+z
7 1/4+x,3/4-z,1/4-y
8 3/4-y,3/4+x,1/4-z
9 1/2-x,y,-z
10 -z,1/2-x,y
11 1/4+y,1/4+x,1/4+z
12 3/4-x,3/4+z,1/4-y
13 1/2+z,1/2-x,-y
14 3/4+x,3/4+z,3/4+y
15 1/2-z,x,-y
16 1/4-x,3/4-z,3/4+y
17 y,z,x
18 1/4+z,3/4-y,1/4-x
19 1/4-z,3/4-y,3/4+x
20 y,-z,1/2-x
21 1/4+z,1/4+y,1/4+x
22 -y,1/2+z,1/2-x
23 -y,1/2-z,x
24 3/4-z,3/4+y,1/4-x
25 1/2+x,1/2+y,1/2+z
26 3/4+y,1/4-x,3/4-z
27 x,-y,1/2-z
28 1/2+z,1/2+x,1/2+y
29 1/2-x,-y,1/2+z
30 1/4-y,3/4-x,3/4+z
31 3/4+x,1/4-z,3/4-y
32 1/4-y,1/4+x,3/4-z
33 -x,1/2+y,1/2-z
34 1/2-z,-x,1/2+y
35 3/4+y,3/4+x,3/4+z
36 1/4-x,1/4+z,3/4-y
37 z,-x,1/2-y
38 1/4+x,1/4+z,1/4+y
39 -z,1/2+x,1/2-y
40 3/4-x,1/4-z,1/4+y
41 1/2+y,1/2+z,1/2+x
42 3/4+z,1/4-y,3/4-x
43 3/4-z,1/4-y,1/4+x
44 1/2+y,1/2-z,-x
45 3/4+z,3/4+y,3/4+x
46 1/2-y,z,-x
47 1/2-y,-z,1/2+x
48 1/4-z,1/4+y,3/4-x
_cell_length_a 22.783(2)
_cell_length_b 22.783(2)
_cell_length_c 22.783(2)
_cell_angle_alpha 90
_cell_angle_beta 90
_cell_angle_gamma 90
_cell_formula_units_Z 16
loop_
_atom_type_symbol
_atom_type_radius_bond
C 0.68
H 0.23
Mo 1.37
N 0.68
loop_
_atom_site_label
_atom_site_type_symbol
_atom_site_fract_x
_atom_site_fract_y
_atom_site_fract_z
Mo1 Mo 0.9304(1) 0.4304(1) 0.0696(1)
N1 N 0.8884(1) 0.3884(1) 0.1116(1)
C1 C 0.9287(1) 0.4376(1) -0.0565(1)
N2 N 0.9194(1) 0.3961(1) -0.0095(1)
C2 C 0.9851(1) 0.4525(1) -0.0737(1)
C3 C 0.9944(2) 0.4945(2) -0.1168(1)
C4 C 0.9473(2) 0.5213(2) -0.1441(2)
C5 C 0.8909(2) 0.5065(2) -0.1279(2)
C6 C 0.8812(1) 0.4656(1) -0.0843(1)
C7 C 0.8930(1) 0.3373(1) -0.0254(1)
C8 C 0.9058(2) 0.3225(2) -0.0894(2)
C9 C 0.9202(2) 0.2909(2) 0.0141(2)
C10 C 0.8264(1) 0.3377(2) -0.0160(2)
H1 H 1.0170(1) 0.4341(1) -0.0562(1)
H2 H 1.0325(2) 0.5046(2) -0.1274(1)
H3 H 0.9537(2) 0.5493(2) -0.1732(2)
H4 H 0.8591(2) 0.5242(2) -0.1465(2)
H5 H 0.8431(1) 0.4564(1) -0.0731(1)
H6 H 0.8887(2) 0.3518(2) -0.1143(2)
H7 H 0.8894(2) 0.2848(2) -0.0986(2)
H8 H 0.9475(2) 0.3215(2) -0.0955(2)
H9 H 0.9121(2) 0.3003(2) 0.0544(2)
H10 H 0.9619(2) 0.2899(2) 0.0080(2)
H11 H 0.9037(2) 0.2532(2) 0.0050(2)
H12 H 0.8180(1) 0.3470(2) 0.0243(2)
H13 H 0.8107(1) 0.2997(2) -0.0251(2)
H14 H 0.8088(1) 0.3666(2) -0.0411(2)
N2LA N 1.0095(1) 0.4194(1) 0.1039(1)
C1LA C 1.0565(1) 0.4287(1) 0.0624(1)
C2LA C 1.0737(1) 0.4851(1) 0.0475(1)
C3LA C 1.1168(2) 0.4944(2) 0.0055(1)
C4LA C 1.1441(2) 0.4473(2) -0.0213(2)
C5LA C 1.1279(2) 0.3909(2) -0.0065(2)
C6LA C 1.0843(1) 0.3812(1) 0.0344(1)
H5LA H 1.0731(1) 0.3431(1) 0.0436(1)
H4LA H 1.1465(2) 0.3591(2) -0.0242(2)
H3LA H 1.1732(2) 0.4537(2) -0.0493(2)
H2LA H 1.1274(2) 0.5325(2) -0.0046(1)
H1LA H 1.0562(1) 0.5170(1) 0.0659(1)
C7LA C 1.0254(1) 0.3930(1) 0.1627(1)
C8LA C 1.0894(2) 0.4058(2) 0.1775(2)
H6LA H 1.1143(2) 0.3887(2) 0.1482(2)
H7LA H 1.0986(2) 0.3894(2) 0.2152(2)
H8LA H 1.0955(2) 0.4475(2) 0.1785(2)
C9LA C 0.9859(2) 0.4202(2) 0.2091(2)
H9LA H 0.9456(2) 0.4121(2) 0.1997(2)
H10LA H 0.9920(2) 0.4619(2) 0.2101(2)
H11LA H 0.9950(2) 0.4037(2) 0.2468(2)
C10LA C 1.0160(1) 0.3264(2) 0.1623(2)
H12LA H 0.9757(1) 0.3180(2) 0.1530(2)
H13LA H 1.0251(1) 0.3107(2) 0.2003(2)
H14LA H 1.0411(1) 0.3088(2) 0.1334(2)
N2QA N 0.8961(1) 0.5095(1) 0.0806(1)
C1QA C 0.9376(1) 0.5565(1) 0.0713(1)
C2QA C 0.9525(1) 0.5737(1) 0.0149(1)
C3QA C 0.9945(2) 0.6168(2) 0.0056(1)
C4QA C 1.0213(2) 0.6441(2) 0.0527(2)
C5QA C 1.0065(2) 0.6279(2) 0.1091(2)
C6QA C 0.9656(1) 0.5843(1) 0.1188(1)
H5QA H 0.9564(1) 0.5731(1) 0.1569(1)
H4QA H 1.0242(2) 0.6465(2) 0.1409(2)
H3QA H 1.0493(2) 0.6732(2) 0.0463(2)
H2QA H 1.0046(2) 0.6274(2) -0.0325(1)
H1QA H 0.9341(1) 0.5562(1) -0.0170(1)
C7QA C 0.8373(1) 0.5254(1) 0.1070(1)
C8QA C 0.8225(2) 0.5894(2) 0.0942(2)
H6QA H 0.8518(2) 0.6143(2) 0.1113(2)
H7QA H 0.7848(2) 0.5986(2) 0.1106(2)
H8QA H 0.8215(2) 0.5955(2) 0.0525(2)
C9QA C 0.7909(2) 0.4859(2) 0.0798(2)
H9QA H 0.8003(2) 0.4456(2) 0.0879(2)
H10QA H 0.7899(2) 0.4920(2) 0.0381(2)
H11QA H 0.7532(2) 0.4950(2) 0.0963(2)
C10QA C 0.8377(1) 0.5160(2) 0.1736(2)
H12QA H 0.8470(1) 0.4757(2) 0.1820(2)
H13QA H 0.7997(1) 0.5251(2) 0.1893(2)
H14QA H 0.8666(1) 0.5411(2) 0.1912(2)
#END

data_CSD_CIF_TRPAMN01
_audit_creation_date 2006-10-10
_audit_creation_method CSD-ConQuest-V1
_database_code_CSD TRPAMN01
_database_code_depnum_ccdc_archive 'CCDC 266992'
_chemical_formula_sum 'C21 H24 Mn1 N7'
_chemical_formula_moiety
;
C21 H24 Mn1 N7
;
_journal_coden_Cambridge 640
_journal_volume 72
_journal_year 2005
_journal_page_first 214408
_journal_name_full 'Journal lookup failed (CCDC Coden 640).
Please contact <support@ccdc.cam.ac.uk> for details.'
loop_
_publ_author_name
"P.Guionneau"
"M.Marchivie"
"Y.Garcia"
"J.A.K.Howard"
"D.Chasseau"
_chemical_name_systematic
;
(tris(2-((Pyrrol-2-yl)methyleneamino)ethyl)amine)-manganese(iii)
;
_cell_volume   8121.328
_exptl_crystal_density_diffrn 1.405
_exptl_special_details
;
high-spin state
spin-crossover phase transition at 44 K

;
_diffrn_ambient_temperature 60
#These two values have been output from a single CSD field.
_refine_ls_R_factor_gt 0.0334
_refine_ls_wR_factor_gt 0.0334
_symmetry_cell_setting cubic
_symmetry_space_group_name_H-M 'I -4 3 d'
_symmetry_Int_Tables_number 220
loop_
_symmetry_equiv_pos_site_id
_symmetry_equiv_pos_as_xyz
1 x,y,z
2 1/2-x,-y,1/2+z
3 -x,1/2+y,1/2-z
4 1/2+x,1/2-y,-z
5 z,x,y
6 1/2+z,1/2-x,-y
7 1/2-z,-x,1/2+y
8 -z,1/2+x,1/2-y
9 y,z,x
10 -y,1/2+z,1/2-x
11 1/2+y,1/2-z,-x
12 1/2-y,-z,1/2+x
13 1/4+y,1/4+x,1/4+z
14 1/4-y,3/4-x,3/4+z
15 3/4+y,1/4-x,3/4-z
16 3/4-y,3/4+x,1/4-z
17 1/4+x,1/4+z,1/4+y
18 3/4-x,3/4+z,1/4-y
19 1/4-x,3/4-z,3/4+y
20 3/4+x,1/4-z,3/4-y
21 1/4+z,1/4+y,1/4+x
22 3/4+z,1/4-y,3/4-x
23 3/4-z,3/4+y,1/4-x
24 1/4-z,3/4-y,3/4+x
25 1/2+x,1/2+y,1/2+z
26 -x,1/2-y,z
27 1/2-x,y,-z
28 x,-y,1/2-z
29 1/2+z,1/2+x,1/2+y
30 z,-x,1/2-y
31 -z,1/2-x,y
32 1/2-z,x,-y
33 1/2+y,1/2+z,1/2+x
34 1/2-y,z,-x
35 y,-z,1/2-x
36 -y,1/2-z,x
37 3/4+y,3/4+x,3/4+z
38 3/4-y,1/4-x,1/4+z
39 1/4+y,3/4-x,1/4-z
40 1/4-y,1/4+x,3/4-z
41 3/4+x,3/4+z,3/4+y
42 1/4-x,1/4+z,3/4-y
43 3/4-x,1/4-z,1/4+y
44 1/4+x,3/4-z,1/4-y
45 3/4+z,3/4+y,3/4+x
46 1/4+z,3/4-y,1/4-x
47 1/4-z,1/4+y,3/4-x
48 3/4-z,1/4-y,1/4+x
_cell_length_a 20.1006(3)
_cell_length_b 20.1006(3)
_cell_length_c 20.1006(3)
_cell_angle_alpha 90
_cell_angle_beta 90
_cell_angle_gamma 90
_cell_formula_units_Z 16
loop_
_atom_type_symbol
_atom_type_radius_bond
C 0.68
H 0.23
Mn 1.35
N 0.68
loop_
_atom_site_label
_atom_site_type_symbol
_atom_site_fract_x
_atom_site_fract_y
_atom_site_fract_z
Mn1 Mn 0.082260(17) 0.417740(17) 0.582260(17)
N1 N 0.09012(10) 0.51962(10) 0.58396(10)
N2 N 0.08248(10) 0.31301(9) 0.56921(10)
C1 C 0.08883(13) 0.63184(13) 0.58869(12)
H1 H 0.07260 0.67620 0.59110
C2 C 0.15519(11) 0.54231(11) 0.58281(11)
C3 C 0.05059(12) 0.57334(15) 0.58771(12)
H2 H 0.00340 0.57200 0.58950
C4 C 0.15589(11) 0.61189(11) 0.58547(11)
H3 H 0.19390 0.64000 0.58520
C5 C 0.08124(11) 0.29435(11) 0.50757(11)
H4 H 0.07940 0.24860 0.49590
C6 C 0.08389(12) 0.26330(11) 0.62239(11)
H5 H 0.07140 0.21930 0.60420
H6 H 0.05120 0.27540 0.65720
C7 C 0.15355(10) 0.25955(11) 0.65282(11)
H7 H 0.15320 0.22830 0.69090
H8 H 0.18520 0.24230 0.61930
N3 N 0.17536(9) 0.32464(9) 0.67536(9)
N1E N 0.08396(10) 0.40988(10) 0.48038(10)
N1K N -0.01962(10) 0.41604(10) 0.59012(10)
N2K N 0.18699(10) 0.43079(9) 0.58248(10)
N2E N 0.06921(10) 0.41752(9) 0.68699(10)
C1E C 0.08869(13) 0.41117(13) 0.36816(12)
C1K C -0.13184(13) 0.41131(13) 0.58883(12)
H1E H 0.09110 0.42740 0.32380
H1K H -0.17620 0.40890 0.57260
C2E C 0.08281(11) 0.34481(11) 0.45769(11)
C2K C -0.04231(11) 0.41719(11) 0.65519(11)
C3E C 0.08771(12) 0.44941(15) 0.42666(12)
C3K C -0.07334(12) 0.41229(15) 0.55059(12)
H2E H 0.08950 0.49660 0.42800
H2K H -0.07200 0.41050 0.50340
C4E C 0.08547(11) 0.34411(11) 0.38811(11)
C4K C -0.11189(11) 0.41453(11) 0.65589(11)
H3E H 0.08520 0.30610 0.36000
H3K H -0.14000 0.41480 0.69390
C5K C 0.20565(11) 0.49243(11) 0.58124(11)
C5E C 0.00757(11) 0.41876(11) 0.70565(11)
H4E H -0.00410 0.42060 0.75140
H4K H 0.25140 0.50410 0.57940
C6E C 0.12239(12) 0.41611(11) 0.73670(11)
C6K C 0.23670(12) 0.37761(11) 0.58389(11)
H5E H 0.10420 0.42860 0.78070
H5K H 0.28070 0.39580 0.57140
H6E H 0.15720 0.44880 0.72460
H6K H 0.22460 0.34280 0.55120
C7E C 0.15282(10) 0.34645(11) 0.74045(11)
C7K C 0.24045(10) 0.34718(11) 0.65355(11)
H7E H 0.19090 0.34680 0.77170
H7K H 0.27170 0.30910 0.65320
H8E H 0.11930 0.31480 0.75770
H8K H 0.25770 0.38070 0.68520
#END

data_CSD_CIF_TRPAMN02
_audit_creation_date 2006-10-10
_audit_creation_method CSD-ConQuest-V1
_database_code_CSD TRPAMN02
_database_code_depnum_ccdc_archive 'CCDC 266993'
_chemical_formula_sum 'C21 H24 Mn1 N7'
_chemical_formula_moiety
;
C21 H24 Mn1 N7
;
_journal_coden_Cambridge 640
_journal_volume 72
_journal_year 2005
_journal_page_first 214408
_journal_name_full 'Journal lookup failed (CCDC Coden 640).
Please contact <support@ccdc.cam.ac.uk> for details.'
loop_
_publ_author_name
"P.Guionneau"
"M.Marchivie"
"Y.Garcia"
"J.A.K.Howard"
"D.Chasseau"
_chemical_name_systematic
;
(tris(2-((Pyrrol-2-yl)methyleneamino)ethyl)amine)-manganese(iii)
;
_cell_volume   8261.029
_exptl_crystal_density_diffrn 1.381
_exptl_special_details
;
high-spin state
spin-crossover phase transition at 44 K

;
_diffrn_ambient_temperature 293
_diffrn_ambient_pressure 160000.0
#These two values have been output from a single CSD field.
_refine_ls_R_factor_gt 0.0459
_refine_ls_wR_factor_gt 0.0459
_symmetry_cell_setting cubic
_symmetry_space_group_name_H-M 'I -4 3 d'
_symmetry_Int_Tables_number 220
loop_
_symmetry_equiv_pos_site_id
_symmetry_equiv_pos_as_xyz
1 x,y,z
2 x,-y,1/2-z
3 -x,1/2-y,z
4 -x,1/2+y,1/2-z
5 1/4+y,3/4-x,1/4-z
6 1/4-y,3/4-x,3/4+z
7 3/4-y,3/4+x,1/4-z
8 3/4+y,3/4+x,3/4+z
9 y,z,x
10 -y,1/2-z,x
11 y,-z,1/2-x
12 -y,1/2+z,1/2-x
13 1/4+z,3/4-y,1/4-x
14 1/4+z,1/4+y,1/4+x
15 3/4-z,3/4+y,1/4-x
16 3/4-z,1/4-y,1/4+x
17 z,x,y
18 1/2-z,x,-y
19 -z,1/2-x,y
20 1/2+z,1/2-x,-y
21 3/4+x,3/4+z,3/4+y
22 3/4+x,1/4-z,3/4-y
23 3/4-x,3/4+z,1/4-y
24 1/4-x,3/4-z,3/4+y
25 1/2+x,1/2+y,1/2+z
26 1/2+x,1/2-y,-z
27 1/2-x,-y,1/2+z
28 1/2-x,y,-z
29 3/4+y,1/4-x,3/4-z
30 3/4-y,1/4-x,1/4+z
31 1/4-y,1/4+x,3/4-z
32 1/4+y,1/4+x,1/4+z
33 1/2+y,1/2+z,1/2+x
34 1/2-y,-z,1/2+x
35 1/2+y,1/2-z,-x
36 1/2-y,z,-x
37 3/4+z,1/4-y,3/4-x
38 3/4+z,3/4+y,3/4+x
39 1/4-z,1/4+y,3/4-x
40 1/4-z,3/4-y,3/4+x
41 1/2+z,1/2+x,1/2+y
42 -z,1/2+x,1/2-y
43 1/2-z,-x,1/2+y
44 z,-x,1/2-y
45 1/4+x,1/4+z,1/4+y
46 1/4+x,3/4-z,1/4-y
47 1/4-x,1/4+z,3/4-y
48 3/4-x,1/4-z,1/4+y
_cell_length_a 20.2152(2)
_cell_length_b 20.2152(2)
_cell_length_c 20.2152(2)
_cell_angle_alpha 90
_cell_angle_beta 90
_cell_angle_gamma 90
_cell_formula_units_Z 16
loop_
_atom_type_symbol
_atom_type_radius_bond
C 0.68
H 0.23
Mn 1.35
N 0.68
loop_
_atom_site_label
_atom_site_type_symbol
_atom_site_fract_x
_atom_site_fract_y
_atom_site_fract_z
Mn1 Mn 0.91837(10) 0.41837(10) 0.08163(10)
N1 N 0.8138(5) 0.4318(5) 0.0821(5)
N2 N 1.0197(5) 0.4161(6) 0.0884(5)
C1 C 1.1301(7) 0.4119(7) 0.0877(9)
H1 H 1.17310 0.40970 0.07160
C2 C 1.0733(10) 0.4131(7) 0.0508(8)
H2 H 1.07240 0.41200 0.00480
C3 C 1.0424(7) 0.4173(7) 0.1537(6)
C4 C 1.1116(7) 0.4146(7) 0.1532(8)
H3 H 1.13950 0.41450 0.18970
C5 C 0.7960(7) 0.4933(7) 0.0820(6)
H4 H 0.75150 0.50500 0.08160
C6 C 0.7645(6) 0.3796(7) 0.0849(8)
H5 H 0.77530 0.34560 0.05290
H6 H 0.72150 0.39770 0.07340
C7 C 0.7614(7) 0.3492(8) 0.1540(7)
H7 H 0.74550 0.38190 0.18530
H8 H 0.73070 0.31230 0.15400
N3 N 0.8265(4) 0.3265(4) 0.1735(4)
N1HA N 0.9318(5) 0.4179(5) 0.1862(5)
N1OA N 0.9179(5) 0.3138(5) 0.0682(5)
N2OA N 0.9116(5) 0.5197(6) 0.0839(5)
N2HA N 0.9161(5) 0.4116(6) -0.0197(5)
C1HA C 0.9119(7) 0.4123(7) -0.1301(9)
C1OA C 0.9123(7) 0.6301(7) 0.0881(9)
H1HA H 0.90970 0.42840 -0.17310
H1OA H 0.92840 0.67310 0.09030
C2HA C 0.9131(10) 0.4492(7) -0.0733(8)
C2OA C 0.9492(10) 0.5733(7) 0.0869(8)
H2HA H 0.91200 0.49520 -0.07240
H2OA H 0.99520 0.57240 0.08800
C3OA C 0.8463(7) 0.5424(7) 0.0827(6)
C3HA C 0.9173(7) 0.3463(7) -0.0424(6)
C4HA C 0.9146(7) 0.3468(7) -0.1116(8)
C4OA C 0.8468(7) 0.6116(7) 0.0854(8)
H3HA H 0.91450 0.31030 -0.13950
H3OA H 0.81030 0.63950 0.08550
C5HA C 0.9933(7) 0.4180(7) 0.2040(6)
C5OA C 0.9180(7) 0.2960(7) 0.0067(6)
H4OA H 0.91840 0.25150 -0.00500
H4HA H 1.00500 0.41840 0.24850
C6OA C 0.9151(6) 0.2645(7) 0.1204(8)
C6HA C 0.8796(6) 0.4151(7) 0.2355(8)
H5OA H 0.94710 0.27530 0.15440
H5HA H 0.84560 0.44710 0.22470
H6OA H 0.92660 0.22150 0.10230
H6HA H 0.89770 0.42660 0.27850
C7OA C 0.8460(7) 0.2614(8) 0.1508(7)
C7HA C 0.8492(7) 0.3460(8) 0.2386(7)
H7OA H 0.81470 0.24550 0.11810
H7HA H 0.88190 0.31470 0.25450
H8OA H 0.84600 0.23070 0.18770
H8HA H 0.81230 0.34600 0.26930
#END

data_CSD_CIF_TRPAMN03
_audit_creation_date 2006-10-10
_audit_creation_method CSD-ConQuest-V1
_database_code_CSD TRPAMN03
_database_code_depnum_ccdc_archive 'CCDC 266994'
_chemical_formula_sum 'C21 H24 Mn1 N7'
_chemical_formula_moiety
;
C21 H24 Mn1 N7
;
_journal_coden_Cambridge 640
_journal_volume 72
_journal_year 2005
_journal_page_first 214408
_journal_name_full 'Journal lookup failed (CCDC Coden 640).
Please contact <support@ccdc.cam.ac.uk> for details.'
loop_
_publ_author_name
"P.Guionneau"
"M.Marchivie"
"Y.Garcia"
"J.A.K.Howard"
"D.Chasseau"
_chemical_name_systematic
;
(tris(2-((Pyrrol-2-yl)methyleneamino)ethyl)amine)-manganese(iii)
;
_cell_volume   8343.194
_exptl_crystal_density_diffrn 1.367
_exptl_special_details
;
high-spin state
spin-crossover phase transition at 44 K

;
_diffrn_ambient_temperature 293
#These two values have been output from a single CSD field.
_refine_ls_R_factor_gt 0.028
_refine_ls_wR_factor_gt 0.028
_symmetry_cell_setting cubic
_symmetry_space_group_name_H-M 'I -4 3 d'
_symmetry_Int_Tables_number 220
loop_
_symmetry_equiv_pos_site_id
_symmetry_equiv_pos_as_xyz
1 x,y,z
2 x,-y,1/2-z
3 -x,1/2-y,z
4 -x,1/2+y,1/2-z
5 1/4+y,3/4-x,1/4-z
6 1/4-y,3/4-x,3/4+z
7 3/4-y,3/4+x,1/4-z
8 3/4+y,3/4+x,3/4+z
9 y,z,x
10 -y,1/2-z,x
11 y,-z,1/2-x
12 -y,1/2+z,1/2-x
13 1/4+z,3/4-y,1/4-x
14 1/4+z,1/4+y,1/4+x
15 3/4-z,3/4+y,1/4-x
16 3/4-z,1/4-y,1/4+x
17 z,x,y
18 1/2-z,x,-y
19 -z,1/2-x,y
20 1/2+z,1/2-x,-y
21 3/4+x,3/4+z,3/4+y
22 3/4+x,1/4-z,3/4-y
23 3/4-x,3/4+z,1/4-y
24 1/4-x,3/4-z,3/4+y
25 1/2+x,1/2+y,1/2+z
26 1/2+x,1/2-y,-z
27 1/2-x,-y,1/2+z
28 1/2-x,y,-z
29 3/4+y,1/4-x,3/4-z
30 3/4-y,1/4-x,1/4+z
31 1/4-y,1/4+x,3/4-z
32 1/4+y,1/4+x,1/4+z
33 1/2+y,1/2+z,1/2+x
34 1/2-y,-z,1/2+x
35 1/2+y,1/2-z,-x
36 1/2-y,z,-x
37 3/4+z,1/4-y,3/4-x
38 3/4+z,3/4+y,3/4+x
39 1/4-z,1/4+y,3/4-x
40 1/4-z,3/4-y,3/4+x
41 1/2+z,1/2+x,1/2+y
42 -z,1/2+x,1/2-y
43 1/2-z,-x,1/2+y
44 z,-x,1/2-y
45 1/4+x,1/4+z,1/4+y
46 1/4+x,3/4-z,1/4-y
47 1/4-x,1/4+z,3/4-y
48 3/4-x,1/4-z,1/4+y
_cell_length_a 20.282
_cell_length_b 20.282
_cell_length_c 20.282
_cell_angle_alpha 90
_cell_angle_beta 90
_cell_angle_gamma 90
_cell_formula_units_Z 16
loop_
_atom_type_symbol
_atom_type_radius_bond
C 0.68
H 0.23
Mn 1.35
N 0.68
loop_
_atom_site_label
_atom_site_type_symbol
_atom_site_fract_x
_atom_site_fract_y
_atom_site_fract_z
Mn1 Mn 0.918287(15) 0.418287(15) 0.081713(15)
N1 N 1.01899(9) 0.41643(9) 0.08900(9)
N2 N 0.81446(8) 0.43196(9) 0.08286(9)
C1 C 1.04254(11) 0.41701(11) 0.15315(11)
C2 C 1.12970(14) 0.41275(13) 0.08768(14)
H1 H 1.17270 0.41130 0.07190
C3 C 1.11041(12) 0.41461(12) 0.15342(13)
H2 H 1.13780 0.41430 0.19020
C4 C 1.07269(14) 0.41347(12) 0.05028(13)
H3 H 1.07160 0.41210 0.00450
N3 N 0.82627(8) 0.32627(8) 0.17373(8)
C5 C 0.76208(11) 0.34934(12) 0.15269(11)
H4 H 0.74600 0.38180 0.18390
H5 H 0.73140 0.31260 0.15240
C6 C 0.76465(11) 0.37987(11) 0.08436(13)
H6 H 0.77540 0.34630 0.05210
H7 H 0.72190 0.39810 0.07320
C7 C 0.7970(1) 0.49324(12) 0.08194(11)
H8 H 0.75270 0.50490 0.08060
N1HA N 0.91643(9) 0.41100(9) -0.01899(9)
N1OA N 0.91100(9) 0.51899(9) 0.08357(9)
N2HA N 0.93196(8) 0.41714(9) 0.18554(9)
N2OA N 0.91714(8) 0.31446(9) 0.06804(9)
C1HA C 0.91701(11) 0.34685(11) -0.04254(11)
C1OA C 0.84685(11) 0.54254(11) 0.08299(11)
C2HA C 0.91275(14) 0.41232(13) -0.12970(14)
C2OA C 0.91232(14) 0.62970(13) 0.08725(14)
H1HA H 0.91130 0.42810 -0.17270
H1OA H 0.92810 0.67270 0.08870
C3HA C 0.91461(12) 0.34658(12) -0.11041(13)
C3OA C 0.84658(12) 0.61041(12) 0.08539(13)
H2HA H 0.91430 0.30980 -0.13780
H2OA H 0.80980 0.63780 0.08570
C4HA C 0.91347(14) 0.44972(12) -0.07269(13)
C4OA C 0.94972(14) 0.57269(12) 0.08653(13)
H3HA H 0.91210 0.49550 -0.07160
H3OA H 0.99550 0.57160 0.08790
C5HA C 0.84934(11) 0.34731(12) 0.23792(11)
C5OA C 0.84731(11) 0.26208(12) 0.15066(11)
H4HA H 0.88180 0.31610 0.25400
H4OA H 0.81610 0.24600 0.11820
H5HA H 0.81260 0.34760 0.26860
H5OA H 0.84760 0.23140 0.18740
C6HA C 0.87987(11) 0.41564(11) 0.23535(13)
C6OA C 0.91564(11) 0.26465(11) 0.12013(13)
H6HA H 0.84630 0.44790 0.22460
H6OA H 0.94790 0.27540 0.15370
H7HA H 0.89810 0.42680 0.27810
H7OA H 0.92680 0.22190 0.10190
C7HA C 0.99324(10) 0.41806(12) 0.20300(11)
C7OA C 0.91806(10) 0.29700(12) 0.00676(11)
H8OA H 0.91940 0.25270 -0.00490
H8HA H 1.00490 0.41940 0.24730
#END

data_CSD_CIF_TRPAMN04
_audit_creation_date 2006-10-10
_audit_creation_method CSD-ConQuest-V1
_database_code_CSD TRPAMN04
_database_code_depnum_ccdc_archive 'CCDC 266995'
_chemical_formula_sum 'C21 H24 Mn1 N7'
_chemical_formula_moiety
;
C21 H24 Mn1 N7
;
_journal_coden_Cambridge 640
_journal_volume 72
_journal_year 2005
_journal_page_first 214408
_journal_name_full 'Journal lookup failed (CCDC Coden 640).
Please contact <support@ccdc.cam.ac.uk> for details.'
loop_
_publ_author_name
"P.Guionneau"
"M.Marchivie"
"Y.Garcia"
"J.A.K.Howard"
"D.Chasseau"
_chemical_name_systematic
;
(tris(2-((Pyrrol-2-yl)methyleneamino)ethyl)amine)-manganese(iii)
;
_cell_volume   7949.228
_exptl_crystal_density_diffrn 1.435
_exptl_special_details
;
low-spin state
spin-crossover phase transition at 44 K
Study temperature given as 293 K in the cif
;
_diffrn_ambient_temperature 30
#These two values have been output from a single CSD field.
_refine_ls_R_factor_gt 0.033
_refine_ls_wR_factor_gt 0.033
_symmetry_cell_setting cubic
_symmetry_space_group_name_H-M 'I -4 3 d'
_symmetry_Int_Tables_number 220
loop_
_symmetry_equiv_pos_site_id
_symmetry_equiv_pos_as_xyz
1 x,y,z
2 1/2-x,-y,1/2+z
3 -x,1/2+y,1/2-z
4 1/2+x,1/2-y,-z
5 z,x,y
6 1/2+z,1/2-x,-y
7 1/2-z,-x,1/2+y
8 -z,1/2+x,1/2-y
9 y,z,x
10 -y,1/2+z,1/2-x
11 1/2+y,1/2-z,-x
12 1/2-y,-z,1/2+x
13 1/4+y,1/4+x,1/4+z
14 1/4-y,3/4-x,3/4+z
15 3/4+y,1/4-x,3/4-z
16 3/4-y,3/4+x,1/4-z
17 1/4+x,1/4+z,1/4+y
18 3/4-x,3/4+z,1/4-y
19 1/4-x,3/4-z,3/4+y
20 3/4+x,1/4-z,3/4-y
21 1/4+z,1/4+y,1/4+x
22 3/4+z,1/4-y,3/4-x
23 3/4-z,3/4+y,1/4-x
24 1/4-z,3/4-y,3/4+x
25 1/2+x,1/2+y,1/2+z
26 -x,1/2-y,z
27 1/2-x,y,-z
28 x,-y,1/2-z
29 1/2+z,1/2+x,1/2+y
30 z,-x,1/2-y
31 -z,1/2-x,y
32 1/2-z,x,-y
33 1/2+y,1/2+z,1/2+x
34 1/2-y,z,-x
35 y,-z,1/2-x
36 -y,1/2-z,x
37 3/4+y,3/4+x,3/4+z
38 3/4-y,1/4-x,1/4+z
39 1/4+y,3/4-x,1/4-z
40 1/4-y,1/4+x,3/4-z
41 3/4+x,3/4+z,3/4+y
42 1/4-x,1/4+z,3/4-y
43 3/4-x,1/4-z,1/4+y
44 1/4+x,3/4-z,1/4-y
45 3/4+z,3/4+y,3/4+x
46 1/4+z,3/4-y,1/4-x
47 1/4-z,1/4+y,3/4-x
48 3/4-z,1/4-y,1/4+x
_cell_length_a 19.9576(3)
_cell_length_b 19.9576(3)
_cell_length_c 19.9576(3)
_cell_angle_alpha 90
_cell_angle_beta 90
_cell_angle_gamma 90
_cell_formula_units_Z 16
loop_
_atom_type_symbol
_atom_type_radius_bond
C 0.68
H 0.23
Mn 1.35
N 0.68
loop_
_atom_site_label
_atom_site_type_symbol
_atom_site_fract_x
_atom_site_fract_y
_atom_site_fract_z
Mn1 Mn 0.086056(15) 0.413944(15) 0.586056(15)
N1 N 0.09119(8) 0.51277(8) 0.58707(8)
N2 N 0.08464(9) 0.31308(8) 0.57432(8)
C1 C 0.08676(11) 0.62611(10) 0.58864(10)
H1 H 0.06960 0.66940 0.59020
C2 C 0.15605(10) 0.53763(10) 0.58319(10)
C3 C 0.04972(10) 0.56616(11) 0.59047(10)
H2 H 0.00330 0.56360 0.59360
C4 C 0.1546(1) 0.60793(10) 0.58394(10)
H3 H 0.19120 0.63670 0.58180
C5 C 0.08131(10) 0.29305(10) 0.51246(10)
H4 H 0.07790 0.24790 0.50140
C6 C 0.08375(11) 0.26365(10) 0.62885(10)
H5 H 0.06850 0.22080 0.61170
H6 H 0.05270 0.27810 0.66340
C7 C 0.15374(10) 0.25578(10) 0.65884(10)
H7 H 0.15160 0.22520 0.69650
H8 H 0.18330 0.23640 0.62550
N3 N 0.18106(9) 0.31894(9) 0.68106(9)
N1E N 0.08707(8) 0.40881(8) 0.48723(8)
N1K N -0.01277(8) 0.41293(8) 0.59119(8)
N2K N 0.18692(9) 0.42568(8) 0.58464(8)
N2E N 0.07432(9) 0.41536(8) 0.68692(8)
C1E C 0.08864(11) 0.41324(10) 0.37389(10)
C1K C -0.12611(11) 0.41136(10) 0.58676(10)
H1E H 0.09020 0.43040 0.33060
H1K H -0.16940 0.40980 0.56960
C2E C 0.08319(10) 0.34395(10) 0.46237(10)
C2K C -0.03763(10) 0.41681(10) 0.65605(10)
C3E C 0.09047(10) 0.45028(11) 0.43384(10)
C3K C -0.06616(10) 0.40953(11) 0.54972(10)
H2E H 0.09360 0.49670 0.43640
H2K H -0.06360 0.40640 0.50330
C4E C 0.08394(10) 0.3454(1) 0.39207(10)
C4K C -0.10793(10) 0.41606(10) 0.6546(1)
H3E H 0.08180 0.30880 0.36330
H3K H -0.13670 0.41820 0.69120
C5K C 0.20695(10) 0.48754(10) 0.58131(10)
C5E C 0.01246(10) 0.41869(10) 0.70695(10)
H4E H 0.00140 0.42210 0.75210
H4K H 0.25210 0.49860 0.57790
C6E C 0.12885(11) 0.41625(10) 0.73635(10)
C6K C 0.23635(11) 0.37115(10) 0.58375(10)
H5E H 0.11170 0.43150 0.77920
H5K H 0.27920 0.38830 0.56850
H6E H 0.16340 0.44730 0.72190
H6K H 0.22190 0.33660 0.55270
C7E C 0.15884(10) 0.34626(10) 0.74422(10)
C7K C 0.24422(10) 0.34116(10) 0.65374(10)
H7E H 0.19650 0.34840 0.77480
H7K H 0.27480 0.30350 0.65160
H8E H 0.12550 0.31670 0.76360
H8K H 0.26360 0.37450 0.68330
#END

data_CSD_CIF_TRPAMN05
_audit_creation_date 2006-10-10
_audit_creation_method CSD-ConQuest-V1
_database_code_CSD TRPAMN05
_database_code_depnum_ccdc_archive 'CCDC 266996'
_chemical_formula_sum 'C21 H24 Mn1 N7'
_chemical_formula_moiety
;
C21 H24 Mn1 N7
;
_journal_coden_Cambridge 640
_journal_volume 72
_journal_year 2005
_journal_page_first 214408
_journal_name_full 'Journal lookup failed (CCDC Coden 640).
Please contact <support@ccdc.cam.ac.uk> for details.'
loop_
_publ_author_name
"P.Guionneau"
"M.Marchivie"
"Y.Garcia"
"J.A.K.Howard"
"D.Chasseau"
_chemical_name_systematic
;
(tris(2-((Pyrrol-2-yl)methyleneamino)ethyl)amine)-manganese(iii)
;
_cell_volume   7745.938
_exptl_crystal_density_diffrn 1.473
_exptl_special_details
;
high-spin state
spin-crossover phase transition at 44 K

;
_diffrn_ambient_temperature 293
_diffrn_ambient_pressure 1000000.0
#These two values have been output from a single CSD field.
_refine_ls_R_factor_gt 0.0395
_refine_ls_wR_factor_gt 0.0395
_symmetry_cell_setting cubic
_symmetry_space_group_name_H-M 'I -4 3 d'
_symmetry_Int_Tables_number 220
loop_
_symmetry_equiv_pos_site_id
_symmetry_equiv_pos_as_xyz
1 x,y,z
2 -x,1/2-y,z
3 x,-y,1/2-z
4 1/2-x,y,-z
5 z,x,y
6 y,z,x
7 -z,1/2-x,y
8 1/2-y,z,-x
9 z,-x,1/2-y
10 -y,1/2-z,x
11 1/2-z,x,-y
12 y,-z,1/2-x
13 1/4+y,1/4+x,1/4+z
14 3/4-y,1/4-x,1/4+z
15 1/4-y,1/4+x,3/4-z
16 1/4+y,3/4-x,1/4-z
17 1/4+x,1/4+z,1/4+y
18 1/4+z,1/4+y,1/4+x
19 3/4-x,1/4-z,1/4+y
20 1/4+z,3/4-y,1/4-x
21 1/4-x,1/4+z,3/4-y
22 3/4-z,1/4-y,1/4+x
23 1/4+x,3/4-z,1/4-y
24 1/4-z,1/4+y,3/4-x
25 1/2+x,1/2+y,1/2+z
26 1/2-x,-y,1/2+z
27 1/2+x,1/2-y,-z
28 -x,1/2+y,1/2-z
29 1/2+z,1/2+x,1/2+y
30 1/2+y,1/2+z,1/2+x
31 1/2-z,-x,1/2+y
32 -y,1/2+z,1/2-x
33 1/2+z,1/2-x,-y
34 1/2-y,-z,1/2+x
35 -z,1/2+x,1/2-y
36 1/2+y,1/2-z,-x
37 3/4+y,3/4+x,3/4+z
38 1/4-y,3/4-x,3/4+z
39 3/4-y,3/4+x,1/4-z
40 3/4+y,1/4-x,3/4-z
41 3/4+x,3/4+z,3/4+y
42 3/4+z,3/4+y,3/4+x
43 1/4-x,3/4-z,3/4+y
44 3/4+z,1/4-y,3/4-x
45 3/4-x,3/4+z,1/4-y
46 1/4-z,3/4-y,3/4+x
47 3/4+x,1/4-z,3/4-y
48 3/4-z,3/4+y,1/4-x
_cell_length_a 19.786(5)
_cell_length_b 19.786(5)
_cell_length_c 19.786(5)
_cell_angle_alpha 90
_cell_angle_beta 90
_cell_angle_gamma 90
_cell_formula_units_Z 16
loop_
_atom_type_symbol
_atom_type_radius_bond
C 0.68
H 0.23
Mn 1.35
N 0.68
loop_
_atom_site_label
_atom_site_type_symbol
_atom_site_fract_x
_atom_site_fract_y
_atom_site_fract_z
Mn1 Mn 0.58182(8) 0.08182(8) 0.41818(8)
N1 N 0.5834(4) 0.0885(4) 0.5214(4)
N2 N 0.6759(4) 0.1759(4) 0.3241(4)
C1 C 0.5805(5) 0.2051(5) 0.4930(6)
H1 H 0.57820 0.25070 0.50450
C2 C 0.5875(5) 0.0501(6) 0.5757(6)
H2 H 0.58930 0.00320 0.57460
N3 N 0.5823(4) 0.1877(4) 0.4311(4)
C3 C 0.5820(5) 0.1548(6) 0.5451(5)
C4 C 0.5831(6) 0.2373(4) 0.3777(5)
H3 H 0.57070 0.28120 0.39570
H4 H 0.55040 0.22510 0.34330
C5 C 0.6531(5) 0.2409(5) 0.3469(5)
H5 H 0.65250 0.27200 0.30900
H6 H 0.68450 0.25830 0.38020
C6 C 0.5887(6) 0.0880(6) 0.6347(5)
H7 H 0.59130 0.07170 0.67870
C7 C 0.5851(5) 0.1553(6) 0.6147(5)
H8 H 0.58480 0.19310 0.64260
N1HA N 0.4786(4) 0.0834(4) 0.4115(4)
N1IA N 0.5885(4) -0.0214(4) 0.4166(4)
C1HA C 0.5070(5) 0.0805(5) 0.2949(6)
C1IA C 0.7051(5) 0.0070(5) 0.4195(6)
H1HA H 0.49550 0.07820 0.24930
H1IA H 0.75070 -0.00450 0.42180
C2HA C 0.4243(5) 0.0875(6) 0.4499(6)
C2IA C 0.5501(5) -0.0757(6) 0.4125(6)
H2HA H 0.42540 0.08930 0.49680
H2IA H 0.50320 -0.07460 0.41070
N3HA N 0.5689(4) 0.0823(4) 0.3123(4)
N3IA N 0.6877(4) 0.0689(4) 0.4177(4)
C3HA C 0.4549(5) 0.0820(6) 0.3452(5)
C3IA C 0.6548(5) -0.0451(6) 0.4180(5)
C4IA C 0.7373(6) 0.1223(4) 0.4169(5)
C4HA C 0.6223(6) 0.0831(4) 0.2627(5)
H3IA H 0.78120 0.10430 0.42930
H3HA H 0.60430 0.07070 0.21880
H4IA H 0.72510 0.15670 0.44960
H4HA H 0.65670 0.05040 0.27490
C5IA C 0.7409(5) 0.1531(5) 0.3469(5)
C5HA C 0.6531(5) 0.1531(5) 0.2591(5)
H5HA H 0.69100 0.15250 0.22800
H5IA H 0.77200 0.19100 0.34750
H6HA H 0.61980 0.18450 0.24170
H6IA H 0.75830 0.11980 0.31550
C6HA C 0.3653(6) 0.0887(6) 0.4120(5)
C6IA C 0.5880(6) -0.1347(6) 0.4113(5)
H7HA H 0.32130 0.09130 0.42830
H7IA H 0.57170 -0.17870 0.40870
C7HA C 0.3853(5) 0.0851(6) 0.3447(5)
C7IA C 0.6553(5) -0.1147(6) 0.4149(5)
H8IA H 0.69310 -0.14260 0.41520
H8HA H 0.35740 0.08480 0.30690
#END

data_CSD_CIF_UPOBAE
_audit_creation_date 2016-06-08
_audit_creation_method CSD-ConQuest-V1
_database_code_CSD UPOBAE
_database_code_depnum_ccdc_archive 'CCDC 1407276'
_chemical_formula_sum 'C21 H24 N7 Ru1'
_chemical_formula_moiety
;
C21 H24 N7 Ru1
;
_journal_coden_Cambridge 211
_journal_volume 69
_journal_year 2016
_journal_page_first 1641
_journal_name_full 'J.Coord.Chem. '
loop_
_publ_author_name
"I.N.Booysen"
"A.Adebisi"
"M.P.Akerman"
"O.Q.Munro"
"Bheki Xulu"
_chemical_name_systematic
;
(2-(((1H-pyrrol-2-yl)methylene)amino)-N,N-bis(2-(((1H-pyrrol-2-yl)methylene)am
ino)ethyl)ethanaminato)-ruthenium(iii)
;
_cell_volume   7963.934
_exptl_crystal_colour 'dark red'
_exptl_crystal_density_diffrn 1.586
_exptl_crystal_description 'parallelepiped'
_diffrn_ambient_temperature 100
#These two values have been output from a single CSD field.
_refine_ls_R_factor_gt 0.0215
_refine_ls_wR_factor_gt 0.0215
_symmetry_cell_setting cubic
_symmetry_space_group_name_H-M 'I -4 3 d'
_symmetry_Int_Tables_number 220
loop_
_symmetry_equiv_pos_site_id
_symmetry_equiv_pos_as_xyz
1 x,y,z
2 1/4-x,1/4+z,3/4-y
3 1/4-x,3/4-z,3/4+y
4 1/4-z,3/4-y,3/4+x
5 1/4+z,3/4-y,1/4-x
6 1/4+y,3/4-x,1/4-z
7 1/4-y,1/4+x,3/4-z
8 z,x,y
9 y,z,x
10 -y,1/2-z,x
11 z,-x,1/2-y
12 1/2-y,z,-x
13 -z,1/2-x,y
14 1/2-z,x,-y
15 y,-z,1/2-x
16 x,-y,1/2-z
17 1/2-x,y,-z
18 -x,1/2-y,z
19 1/4-y,3/4-x,3/4+z
20 1/4+y,1/4+x,1/4+z
21 1/4-z,1/4+y,3/4-x
22 1/4+z,1/4+y,1/4+x
23 1/4+x,3/4-z,1/4-y
24 1/4+x,1/4+z,1/4+y
25 1/2+x,1/2+y,1/2+z
26 3/4-x,3/4+z,1/4-y
27 3/4-x,1/4-z,1/4+y
28 3/4-z,1/4-y,1/4+x
29 3/4+z,1/4-y,3/4-x
30 3/4+y,1/4-x,3/4-z
31 3/4-y,3/4+x,1/4-z
32 1/2+z,1/2+x,1/2+y
33 1/2+y,1/2+z,1/2+x
34 1/2-y,-z,1/2+x
35 1/2+z,1/2-x,-y
36 -y,1/2+z,1/2-x
37 1/2-z,-x,1/2+y
38 -z,1/2+x,1/2-y
39 1/2+y,1/2-z,-x
40 1/2+x,1/2-y,-z
41 -x,1/2+y,1/2-z
42 1/2-x,-y,1/2+z
43 3/4-y,1/4-x,1/4+z
44 3/4+y,3/4+x,3/4+z
45 3/4-z,3/4+y,1/4-x
46 3/4+z,3/4+y,3/4+x
47 3/4+x,1/4-z,3/4-y
48 3/4+x,3/4+z,3/4+y
_cell_length_a 19.9699(7)
_cell_length_b 19.9699(7)
_cell_length_c 19.9699(7)
_cell_angle_alpha 90
_cell_angle_beta 90
_cell_angle_gamma 90
_cell_formula_units_Z 16
loop_
_atom_type_symbol
_atom_type_radius_bond
C 0.68
H 0.23
N 0.68
Ru 1.46
loop_
_atom_site_label
_atom_site_type_symbol
_atom_site_fract_x
_atom_site_fract_y
_atom_site_fract_z
Ru1 Ru 0.91407(2) 0.41407(2) 0.08593(2)
N1 N 0.91197(11) 0.40795(11) -0.01647(10)
N2 N 0.91779(12) 0.31167(10) 0.07028(10)
C1 C 0.91692(14) 0.26205(12) 0.12443(13)
H1 H 0.94950 0.27490 0.15950
H2 H 0.92990 0.21760 0.10670
C2 C 0.91042(14) 0.41309(15) -0.12927(12)
H3 H 0.90880 0.43080 -0.17340
C3 C 0.91567(14) 0.34532(14) -0.11162(13)
H4 H 0.91800 0.30820 -0.14120
C4 C 0.91962(13) 0.29221(13) 0.00804(13)
H5 H 0.92270 0.24620 -0.00370
N3 N 0.82461(11) 0.32461(11) 0.17539(11)
C5 C 0.91684(13) 0.34351(13) -0.04160(12)
C6 C 0.84683(13) 0.25857(13) 0.15417(13)
H6 H 0.81540 0.24060 0.12030
H7 H 0.84680 0.22780 0.19310
C7 C 0.90792(13) 0.44994(14) -0.06927(13)
H8 H 0.90400 0.49730 -0.06640
N2KA N 0.92972(12) 0.41779(10) 0.18833(10)
C1KA C 0.87557(14) 0.41692(12) 0.23795(13)
H1KA H 0.84050 0.44950 0.22510
H2KA H 0.89330 0.42990 0.28240
C4KA C 0.99196(13) 0.41962(13) 0.20779(13)
H5KA H 1.00370 0.42270 0.25380
C6KA C 0.84583(13) 0.34683(13) 0.24143(13)
H6KA H 0.87970 0.31540 0.25940
H7KA H 0.80690 0.34680 0.27220
N1KA N 1.01647(11) 0.41197(11) 0.09205(10)
C2KA C 1.12927(14) 0.41042(15) 0.08691(12)
H3KA H 1.17340 0.40880 0.06920
C3KA C 1.11162(14) 0.41567(14) 0.15468(13)
H4KA H 1.14120 0.41800 0.19180
C5KA C 1.04160(13) 0.41684(13) 0.15649(12)
C7KA C 1.06927(13) 0.40792(14) 0.05006(13)
H8KA H 1.06640 0.40400 0.00270
N2LA N 0.81167(12) 0.42972(10) 0.08221(10)
C1LA C 0.76205(14) 0.37557(12) 0.08308(13)
H1LA H 0.77490 0.34050 0.05050
H2LA H 0.71760 0.39330 0.07010
C4LA C 0.79221(13) 0.49196(13) 0.08038(13)
H5LA H 0.74620 0.50370 0.07730
C6LA C 0.75857(13) 0.34583(13) 0.15317(13)
H6LA H 0.74060 0.37970 0.18460
H7LA H 0.72780 0.30690 0.15320
N1LA N 0.90795(11) 0.51647(11) 0.08803(10)
C2LA C 0.91309(14) 0.62927(15) 0.08958(12)
H3LA H 0.93080 0.67340 0.09120
C3LA C 0.84532(14) 0.61162(14) 0.08433(13)
H4LA H 0.80820 0.64120 0.08200
C5LA C 0.84351(13) 0.54160(13) 0.08316(12)
C7LA C 0.94994(13) 0.56927(14) 0.09208(13)
H8LA H 0.99730 0.56640 0.09600
#END

data_CSD_CIF_UWUTUE01
_audit_creation_date 2021-06-29
_audit_creation_method CSD-ConQuest-V1
_database_code_CSD UWUTUE01
_database_code_depnum_ccdc_archive 'CCDC 2070406'
_chemical_formula_sum 'C32 H40 Li4 N4'
_chemical_formula_moiety
;
C32 H40 Li4 N4
;
_journal_coden_Cambridge 1290
_journal_volume 2021
_journal_year 2021
_journal_page_first 2248
_journal_name_full 'Eur.J.Inorg.Chem. '
loop_
_publ_author_name
"A.Bodach"
"J.Ortmeyer"
"B.Herrmann"
"M.Felderhoff"
_chemical_name_systematic
;
tetrakis(\m-2-(dimethylamino)phenyl)-tetra-lithium
;
_cell_volume   9491.232
_exptl_crystal_colour 'colorless'
_exptl_crystal_density_diffrn 1.067
_exptl_special_details
;
I-43d polymorph
Air-sensitive, Moisture-sensitive, 
Hygroscopic,Air-sensitive,Moisture-sensitive,Oxygen-sensitive
;
_exptl_crystal_description 'block'
_exptl_crystal_preparation 'Re-crystallisation from solvent'
_diffrn_ambient_temperature 100
#These two values have been output from a single CSD field.
_refine_ls_R_factor_gt 0.0265
_refine_ls_wR_factor_gt 0.0265
_symmetry_cell_setting cubic
_symmetry_space_group_name_H-M 'I -4 3 d'
_symmetry_Int_Tables_number 220
loop_
_symmetry_equiv_pos_site_id
_symmetry_equiv_pos_as_xyz
1 x,y,z
2 1/2-x,-y,1/2+z
3 -x,1/2+y,1/2-z
4 1/2+x,1/2-y,-z
5 z,x,y
6 1/2+z,1/2-x,-y
7 1/2-z,-x,1/2+y
8 -z,1/2+x,1/2-y
9 y,z,x
10 -y,1/2+z,1/2-x
11 1/2+y,1/2-z,-x
12 1/2-y,-z,1/2+x
13 1/4+y,1/4+x,1/4+z
14 1/4-y,3/4-x,3/4+z
15 3/4+y,1/4-x,3/4-z
16 3/4-y,3/4+x,1/4-z
17 1/4+x,1/4+z,1/4+y
18 3/4-x,3/4+z,1/4-y
19 1/4-x,3/4-z,3/4+y
20 3/4+x,1/4-z,3/4-y
21 1/4+z,1/4+y,1/4+x
22 3/4+z,1/4-y,3/4-x
23 3/4-z,3/4+y,1/4-x
24 1/4-z,3/4-y,3/4+x
25 1/2+x,1/2+y,1/2+z
26 -x,1/2-y,z
27 1/2-x,y,-z
28 x,-y,1/2-z
29 1/2+z,1/2+x,1/2+y
30 z,-x,1/2-y
31 -z,1/2-x,y
32 1/2-z,x,-y
33 1/2+y,1/2+z,1/2+x
34 1/2-y,z,-x
35 y,-z,1/2-x
36 -y,1/2-z,x
37 3/4+y,3/4+x,3/4+z
38 3/4-y,1/4-x,1/4+z
39 1/4+y,3/4-x,1/4-z
40 1/4-y,1/4+x,3/4-z
41 3/4+x,3/4+z,3/4+y
42 1/4-x,1/4+z,3/4-y
43 3/4-x,1/4-z,1/4+y
44 1/4+x,3/4-z,1/4-y
45 3/4+z,3/4+y,3/4+x
46 1/4+z,3/4-y,1/4-x
47 1/4-z,1/4+y,3/4-x
48 3/4-z,1/4-y,1/4+x
_cell_length_a 21.1726(6)
_cell_length_b 21.1726(6)
_cell_length_c 21.1726(6)
_cell_angle_alpha 90
_cell_angle_beta 90
_cell_angle_gamma 90
_cell_formula_units_Z 12
loop_
_atom_type_symbol
_atom_type_radius_bond
C 0.68
H 0.23
Li 1.28
N 0.68
loop_
_atom_site_label
_atom_site_type_symbol
_atom_site_fract_x
_atom_site_fract_y
_atom_site_fract_z
N1 N 0.51220(6) 0.10357(6) 0.78436(6)
C1 C 0.51149(6) 0.09383(7) 0.71553(7)
C2 C 0.56128(6) 0.05801(6) 0.68978(7)
C3 C 0.55663(7) 0.04996(7) 0.62375(7)
C4 C 0.46297(8) 0.11984(8) 0.67973(8)
H1 H 0.43090 0.14400 0.69970
C5 C 0.50844(8) 0.07506(8) 0.58671(8)
H2 H 0.50790 0.06790 0.54240
C6 C 0.46144(9) 0.11049(9) 0.61496(9)
H3 H 0.42850 0.12820 0.59030
C7 C 0.51856(8) 0.17057(7) 0.80078(9)
H4 H 0.55390 0.18890 0.77720
H5 H 0.52650 0.17460 0.84620
H6 H 0.47950 0.19290 0.78990
C8 C 0.45600(7) 0.07726(7) 0.81550(8)
H7 H 0.41840 0.10040 0.80160
H8 H 0.46050 0.08120 0.86140
H9 H 0.45160 0.03260 0.80420
Li1 Li 0.58578(11) 0.04375(11) 0.79380(11)
H10 H 0.5903(9) 0.0245(9) 0.5998(9)
N1R N 0.73780(6) -0.03436(6) 0.85357(6)
C1R C 0.73851(6) 0.03447(7) 0.84383(7)
C2R C 0.68872(6) 0.06022(6) 0.80801(7)
C3R C 0.69337(7) 0.12625(7) 0.79996(7)
C4R C 0.78703(8) 0.07027(8) 0.86984(8)
H1R H 0.81910 0.05030 0.89400
C5R C 0.74156(8) 0.16329(8) 0.82506(8)
H2R H 0.74210 0.20760 0.81790
C6R C 0.78856(9) 0.13504(9) 0.86049(9)
H3R H 0.82150 0.15970 0.87820
C7R C 0.73144(8) -0.05078(7) 0.92057(9)
H4R H 0.69610 -0.02720 0.93890
H5R H 0.72350 -0.09620 0.92460
H6R H 0.77050 -0.03990 0.94290
C8R C 0.79400(7) -0.06550(7) 0.82726(8)
H7R H 0.83160 -0.05160 0.85040
H8R H 0.78950 -0.11140 0.83120
H9R H 0.79840 -0.05420 0.78260
Li1R Li 0.66422(11) -0.04380(11) 0.79375(11)
H10R H 0.6597(9) 0.1502(9) 0.7745(9)
N1AA N 0.51220(6) -0.10357(6) 0.71564(6)
C1AA C 0.51149(6) -0.09383(7) 0.78447(7)
C2AA C 0.56128(6) -0.05801(6) 0.81022(7)
C3AA C 0.55663(7) -0.04996(7) 0.87625(7)
C4AA C 0.46297(8) -0.11984(8) 0.82027(8)
H1AA H 0.43090 -0.14400 0.80030
C5AA C 0.50844(8) -0.07506(8) 0.91329(8)
H2AA H 0.50790 -0.06790 0.95760
C6AA C 0.46144(9) -0.11049(9) 0.88504(9)
H3AA H 0.42850 -0.12820 0.90970
C7AA C 0.51856(8) -0.17057(7) 0.69922(9)
H4AA H 0.55390 -0.18890 0.72280
H5AA H 0.52650 -0.17460 0.65380
H6AA H 0.47950 -0.19290 0.71010
C8AA C 0.45600(7) -0.07726(7) 0.68450(8)
H7AA H 0.41840 -0.10040 0.69840
H8AA H 0.46050 -0.08120 0.63860
H9AA H 0.45160 -0.03260 0.69580
Li1AA Li 0.58578(11) -0.04375(11) 0.70620(11)
H10AA H 0.5903(9) -0.0245(9) 0.9002(9)
N1OA N 0.73780(6) 0.03436(6) 0.64643(6)
C1OA C 0.73851(6) -0.03447(7) 0.65617(7)
C2OA C 0.68872(6) -0.06022(6) 0.69199(7)
C3OA C 0.69337(7) -0.12625(7) 0.70004(7)
C4OA C 0.78703(8) -0.07027(8) 0.63016(8)
H1OA H 0.81910 -0.05030 0.60600
C5OA C 0.74156(8) -0.16329(8) 0.67494(8)
H2OA H 0.74210 -0.20760 0.68210
C6OA C 0.78856(9) -0.13504(9) 0.63951(9)
H3OA H 0.82150 -0.15970 0.62180
C7OA C 0.73144(8) 0.05078(7) 0.57943(9)
H4OA H 0.69610 0.02720 0.56110
H5OA H 0.72350 0.09620 0.57540
H6OA H 0.77050 0.03990 0.55710
C8OA C 0.79400(7) 0.06550(7) 0.67274(8)
H7OA H 0.83160 0.05160 0.64960
H8OA H 0.78950 0.11140 0.66880
H9OA H 0.79840 0.05420 0.71740
Li1OA Li 0.66422(11) 0.04380(11) 0.70625(11)
H10OA H 0.6597(9) -0.1502(9) 0.7255(9)
#END

data_CSD_CIF_VALHAT
_audit_creation_date 2010-11-24
_audit_creation_method CSD-ConQuest-V1
_database_code_CSD VALHAT
_database_code_depnum_ccdc_archive 'CCDC 693156'
_chemical_formula_sum 'C108 H150 K4 N16 O21 Zn4'
_chemical_formula_moiety
;
C108 H150 K4 N16 O21 Zn4
;
_journal_coden_Cambridge 1295
_journal_volume 13
_journal_year 2010
_journal_page_first 464
_journal_name_full 'Inorg.Chem.Commun. '
loop_
_publ_author_name
"A.Mustapha"
"J.Reglinski"
"A.R.Kennedy"
_chemical_name_systematic
;
(\m~4~-Aqua)-tetrakis(\m~3~-tris(2-oxybenzylaminoethyl)amine)-octaaqua-tetra-p
otassium-tetra-zinc
;
_cell_volume  36097.321
_exptl_crystal_colour 'colorless'
_exptl_crystal_density_diffrn 1.339
_exptl_crystal_description 'prism'
_diffrn_ambient_temperature 123
#These two values have been output from a single CSD field.
_refine_ls_R_factor_gt 0.0458
_refine_ls_wR_factor_gt 0.0458
_symmetry_cell_setting cubic
_symmetry_space_group_name_H-M 'I -4 3 d'
_symmetry_Int_Tables_number 220
loop_
_symmetry_equiv_pos_site_id
_symmetry_equiv_pos_as_xyz
1 x,y,z
2 1/4-x,1/4+z,3/4-y
3 3/4-x,1/4-z,1/4+y
4 3/4-z,1/4-y,1/4+x
5 y,-z,1/2-x
6 1/2-z,x,-y
7 1/4-z,1/4+y,3/4-x
8 1/4-y,1/4+x,3/4-z
9 -z,1/2-x,y
10 x,-y,1/2-z
11 1/4+y,3/4-x,1/4-z
12 1/4+x,3/4-z,1/4-y
13 1/2-x,y,-z
14 -y,1/2-z,x
15 -x,1/2-y,z
16 1/4+y,1/4+x,1/4+z
17 1/2-y,z,-x
18 1/4+x,1/4+z,1/4+y
19 1/4+z,1/4+y,1/4+x
20 1/2+z,1/2-x,-y
21 z,x,y
22 3/4-y,1/4-x,1/4+z
23 y,z,x
24 1/4+z,3/4-y,1/4-x
25 1/2+x,1/2+y,1/2+z
26 3/4-x,3/4+z,1/4-y
27 1/4-x,3/4-z,3/4+y
28 1/4-z,3/4-y,3/4+x
29 1/2+y,1/2-z,-x
30 -z,1/2+x,1/2-y
31 3/4-z,3/4+y,1/4-x
32 3/4-y,3/4+x,1/4-z
33 1/2-z,-x,1/2+y
34 1/2+x,1/2-y,-z
35 3/4+y,1/4-x,3/4-z
36 3/4+x,1/4-z,3/4-y
37 -x,1/2+y,1/2-z
38 1/2-y,-z,1/2+x
39 1/2-x,-y,1/2+z
40 3/4+y,3/4+x,3/4+z
41 -y,1/2+z,1/2-x
42 3/4+x,3/4+z,3/4+y
43 3/4+z,3/4+y,3/4+x
44 z,-x,1/2-y
45 1/2+z,1/2+x,1/2+y
46 1/4-y,3/4-x,3/4+z
47 1/2+y,1/2+z,1/2+x
48 3/4+z,1/4-y,3/4-x
_cell_length_a 33.0490(2)
_cell_length_b 33.0490(2)
_cell_length_c 33.0490(2)
_cell_angle_alpha 90
_cell_angle_beta 90
_cell_angle_gamma 90
_cell_formula_units_Z 12
loop_
_atom_type_symbol
_atom_type_radius_bond
C 0.68
H 0.23
K 2.06
N 0.68
O 0.77
Zn 1.22
loop_
_atom_site_label
_atom_site_type_symbol
_atom_site_fract_x
_atom_site_fract_y
_atom_site_fract_z
Zn1 Zn 0.806864(16) 0.760409(16) 0.114678(17)
K1 K 0.75363(3) 0.66041(3) 0.08636(3)
O1 O 0.78733(9) 0.71084(9) 0.14237(9)
O2 O 0.69625(9) 0.71255(9) 0.05897(10)
O3 O 0.70945(9) 0.59824(9) 0.11845(9)
O4 O 0.81606(10) 0.61205(10) 0.08939(10)
H1 H 0.8387(9) 0.6203(13) 0.0782(15)
H2 H 0.8166(15) 0.5866(5) 0.0818(16)
O5 O 0.80173(11) 0.69599(13) 0.02457(11)
H3 H 0.8242(11) 0.6817(17) 0.0251(17)
H4 H 0.8007(18) 0.701(2) -0.0016(4)
O6 O 0.75000 0.62500 0.00000
N1 N 0.82215(12) 0.79041(12) 0.16812(13)
H5 H 0.84950 0.78610 0.17310
N2 N 0.82291(13) 0.82146(12) 0.08873(13)
N3 N 0.75413(12) 0.77109(11) 0.08223(12)
H6 H 0.74900 0.74770 0.06750
N4 N 0.85714(11) 0.74266(11) 0.08296(12)
H7 H 0.84830 0.73240 0.05830
C1 C 0.80560(14) 0.70011(16) 0.17707(14)
C2 C 0.81860(14) 0.66081(17) 0.18280(15)
H8 H 0.81530 0.64130 0.16190
C3 C 0.83675(16) 0.6497(2) 0.21976(17)
H9 H 0.84440 0.62240 0.22450
C4 C 0.84330(16) 0.6789(3) 0.24923(17)
H10 H 0.85650 0.67170 0.27370
C5 C 0.83081(17) 0.7186(2) 0.24331(17)
H11 H 0.83540 0.73830 0.26380
C6 C 0.81177(14) 0.72966(18) 0.20795(15)
C7 C 0.79906(17) 0.77285(17) 0.20181(16)
H12 H 0.76980 0.77400 0.19570
H13 H 0.80410 0.78850 0.22680
C8 C 0.81589(17) 0.83434(16) 0.16125(18)
H14 H 0.82670 0.84980 0.18450
H15 H 0.78660 0.84010 0.15890
C9 C 0.83713(17) 0.84706(15) 0.12316(18)
H16 H 0.83130 0.87590 0.11740
H17 H 0.86670 0.84400 0.12650
C10 C 0.78572(17) 0.83795(15) 0.06996(19)
H18 H 0.79300 0.85730 0.04830
H19 H 0.76950 0.85250 0.09050
C11 C 0.76141(17) 0.80344(15) 0.05255(18)
H20 H 0.73510 0.81390 0.04280
H21 H 0.77600 0.79200 0.02900
C12 C 0.71754(15) 0.77828(16) 0.10836(17)
H22 H 0.71730 0.75780 0.13020
H23 H 0.72020 0.80520 0.12120
C13 C 0.67801(18) 0.77656(16) 0.08658(19)
C14 C 0.6497(2) 0.8074(2) 0.0886(3)
H24 H 0.65540 0.83050 0.10480
C15 C 0.6138(3) 0.8058(3) 0.0680(3)
H25 H 0.59530 0.82780 0.06900
C16 C 0.6049(2) 0.7716(2) 0.0459(3)
H26 H 0.57940 0.76970 0.03280
C17 C 0.63123(17) 0.74061(18) 0.04235(19)
H27 H 0.62430 0.71770 0.02650
C18 C 0.66980(15) 0.74215(14) 0.06240(17)
C19 C 0.85485(17) 0.81318(15) 0.05909(18)
H28 H 0.87120 0.83790 0.05480
H29 H 0.84250 0.80550 0.03290
C20 C 0.88224(16) 0.77872(14) 0.07418(16)
H30 H 0.90260 0.77210 0.05330
H31 H 0.89670 0.78730 0.09900
C21 C 0.88104(14) 0.70955(13) 0.10354(14)
H32 H 0.89270 0.72020 0.12900
H33 H 0.86260 0.68710 0.11060
C22 C 0.91445(14) 0.69365(13) 0.07751(14)
C23 C 0.95425(15) 0.70687(14) 0.08270(16)
H34 H 0.96000 0.72550 0.10390
C24 C 0.98563(15) 0.69403(15) 0.05830(18)
H35 H 1.01250 0.70320 0.06270
C25 C 0.97682(15) 0.66745(15) 0.02738(17)
H36 H 0.99780 0.65910 0.00970
C26 C 0.93849(16) 0.65291(14) 0.02166(15)
H37 H 0.93390 0.63400 0.00050
C27 C 0.70379(14) 0.58484(13) 0.15532(13)
Zn1UA Zn 0.864678(16) 0.489591(16) -0.056864(17)
Zn1L Zn 0.693136(16) 0.760409(16) -0.114678(17)
Zn1C Zn 0.635322(16) 0.489591(16) 0.056864(17)
K1UA K 0.83636(3) 0.58959(3) -0.00363(3)
K1L K 0.74637(3) 0.66041(3) -0.08636(3)
K1C K 0.66364(3) 0.58959(3) 0.00363(3)
O1UA O 0.89237(9) 0.53916(9) -0.03733(9)
O1L O 0.71267(9) 0.71084(9) -0.14237(9)
O1C O 0.60763(9) 0.53916(9) 0.03733(9)
O2UA O 0.80897(9) 0.53745(9) 0.05375(10)
O2L O 0.80375(9) 0.71255(9) -0.05897(10)
O2C O 0.69103(9) 0.53745(9) -0.05375(10)
O3UA O 0.86845(9) 0.65176(9) 0.04055(9)
O3L O 0.79055(9) 0.59824(9) -0.11845(9)
O3C O 0.63155(9) 0.65176(9) -0.04055(9)
O4UA O 0.83939(10) 0.63795(10) -0.06606(10)
O4L O 0.68394(10) 0.61205(10) -0.08939(10)
O4C O 0.66061(10) 0.63795(10) 0.06606(10)
H1UA H 0.8282(9) 0.6297(13) -0.0887(15)
H1L H 0.6613(9) 0.6203(13) -0.0782(15)
H1C H 0.6718(9) 0.6297(13) 0.0887(15)
H2UA H 0.8318(15) 0.6634(5) -0.0666(16)
H2L H 0.6834(15) 0.5866(5) -0.0818(16)
H2C H 0.6682(15) 0.6634(5) 0.0666(16)
O5UA O 0.77457(11) 0.55401(13) -0.05173(11)
O5L O 0.69827(11) 0.69599(13) -0.02457(11)
O5C O 0.72543(11) 0.55401(13) 0.05173(11)
H3UA H 0.7751(11) 0.5683(17) -0.0742(17)
H3L H 0.6758(11) 0.6817(17) -0.0251(17)
H3C H 0.7249(11) 0.5683(17) 0.0742(17)
H4UA H 0.7484(18) 0.549(2) -0.0507(4)
H4L H 0.6993(18) 0.701(2) 0.0016(4)
H4C H 0.7516(18) 0.549(2) 0.0507(4)
N1UA N 0.91812(12) 0.45959(12) -0.07215(13)
N1L N 0.67785(12) 0.79041(12) -0.16812(13)
N1C N 0.58188(12) 0.45959(12) 0.07215(13)
H5UA H 0.92310 0.46390 -0.09950
H5L H 0.65050 0.78610 -0.17310
H5C H 0.57690 0.46390 0.09950
N2UA N 0.83873(13) 0.42854(12) -0.07291(13)
N2L N 0.67709(13) 0.82146(12) -0.08873(13)
N2C N 0.66127(13) 0.42854(12) 0.07291(13)
N3UA N 0.83223(12) 0.47891(11) -0.00413(12)
N3L N 0.74587(12) 0.77109(11) -0.08223(12)
N3C N 0.66777(12) 0.47891(11) 0.00413(12)
H6UA H 0.81750 0.50230 0.00100
H6L H 0.75100 0.74770 -0.06750
H6C H 0.68250 0.50230 -0.00100
N4UA N 0.83296(11) 0.50734(11) -0.10714(12)
N4L N 0.64286(11) 0.74266(11) -0.08296(12)
N4C N 0.66704(11) 0.50734(11) 0.10714(12)
H7UA H 0.80830 0.51760 -0.09830
H7L H 0.65170 0.73240 -0.05830
H7C H 0.69170 0.51760 0.09830
C1UA C 0.92707(14) 0.54989(16) -0.05560(14)
C1L C 0.69440(14) 0.70011(16) -0.17707(14)
C1C C 0.57293(14) 0.54989(16) 0.05560(14)
C2UA C 0.93280(14) 0.58919(17) -0.06860(15)
C2L C 0.68140(14) 0.66081(17) -0.18280(15)
C2C C 0.56720(14) 0.58919(17) 0.06860(15)
H8UA H 0.91190 0.60870 -0.06530
H8L H 0.68470 0.64130 -0.16190
H8C H 0.58810 0.60870 0.06530
C3UA C 0.96976(16) 0.6003(2) -0.08675(17)
C3L C 0.66325(16) 0.6497(2) -0.21976(17)
C3C C 0.53024(16) 0.6003(2) 0.08675(17)
H9UA H 0.97450 0.62760 -0.09440
H9L H 0.65560 0.62240 -0.22450
H9C H 0.52550 0.62760 0.09440
C4UA C 0.99923(16) 0.5711(3) -0.09330(17)
C4L C 0.65670(16) 0.6789(3) -0.24923(17)
C4C C 0.50077(16) 0.5711(3) 0.09330(17)
H10UA H 1.02370 0.57830 -0.10650
H10L H 0.64350 0.67170 -0.27370
H10C H 0.47630 0.57830 0.10650
C5UA C 0.99331(17) 0.5314(2) -0.08081(17)
C5L C 0.66919(17) 0.7186(2) -0.24331(17)
C5C C 0.50669(17) 0.5314(2) 0.08081(17)
H11UA H 1.01380 0.51170 -0.08540
H11L H 0.66460 0.73830 -0.26380
H11C H 0.48620 0.51170 0.08540
C6UA C 0.95795(14) 0.52034(18) -0.06177(15)
C6L C 0.68823(14) 0.72966(18) -0.20795(15)
C6C C 0.54205(14) 0.52034(18) 0.06177(15)
C7UA C 0.95181(17) 0.47715(17) -0.04906(16)
C7L C 0.70094(17) 0.77285(17) -0.20181(16)
C7C C 0.54819(17) 0.47715(17) 0.04906(16)
H12UA H 0.94570 0.47600 -0.01980
H12L H 0.73020 0.77400 -0.19570
H12C H 0.55430 0.47600 0.01980
H13UA H 0.97680 0.46150 -0.05410
H13L H 0.69590 0.78850 -0.22680
H13C H 0.52320 0.46150 0.05410
C8UA C 0.91125(17) 0.41566(16) -0.06589(18)
C8L C 0.68411(17) 0.83434(16) -0.16125(18)
C8C C 0.58875(17) 0.41566(16) 0.06589(18)
H14UA H 0.93450 0.40020 -0.07670
H14L H 0.67330 0.84980 -0.18450
H14C H 0.56550 0.40020 0.07670
H15UA H 0.90890 0.40990 -0.03660
H15L H 0.71340 0.84010 -0.15890
H15C H 0.59110 0.40990 0.03660
C9UA C 0.87316(17) 0.40294(15) -0.08713(18)
C9L C 0.66287(17) 0.84706(15) -0.12316(18)
C9C C 0.62684(17) 0.40294(15) 0.08713(18)
H16C H 0.63260 0.37410 0.08130
H16L H 0.66870 0.87590 -0.11740
H16UA H 0.86740 0.37410 -0.08130
H17C H 0.62350 0.40600 0.11670
H17L H 0.63330 0.84400 -0.12650
H17UA H 0.87650 0.40600 -0.11670
C10UA C 0.81996(17) 0.41205(15) -0.03572(19)
C10L C 0.71428(17) 0.83795(15) -0.06996(19)
C10C C 0.68004(17) 0.41205(15) 0.03572(19)
H18C H 0.70170 0.39270 0.04300
H18L H 0.70700 0.85730 -0.04830
H18UA H 0.79830 0.39270 -0.04300
H19C H 0.65950 0.39750 0.01950
H19L H 0.73050 0.85250 -0.09050
H19UA H 0.84050 0.39750 -0.01950
C11UA C 0.80255(17) 0.44656(15) -0.01141(18)
C11L C 0.73859(17) 0.80344(15) -0.05255(18)
C11C C 0.69745(17) 0.44656(15) 0.01141(18)
H20C H 0.70720 0.43610 -0.01490
H20L H 0.76490 0.81390 -0.04280
H20UA H 0.79280 0.43610 0.01490
H21C H 0.72100 0.45800 0.02600
H21L H 0.72400 0.79200 -0.02900
H21UA H 0.77900 0.45800 -0.02600
C12UA C 0.85836(15) 0.47172(16) 0.03246(17)
C12L C 0.78246(15) 0.77828(16) -0.10836(17)
C12C C 0.64164(15) 0.47172(16) -0.03246(17)
H22UA H 0.88020 0.49220 0.03270
H22L H 0.78270 0.75780 -0.13020
H22C H 0.61980 0.49220 -0.03270
H23UA H 0.87120 0.44480 0.02980
H23L H 0.77980 0.80520 -0.12120
H23C H 0.62880 0.44480 -0.02980
C13UA C 0.83658(18) 0.47344(16) 0.07199(19)
C13L C 0.82199(18) 0.77656(16) -0.08658(19)
C13C C 0.66342(18) 0.47344(16) -0.07199(19)
C14UA C 0.8386(2) 0.4426(2) 0.1003(3)
C14L C 0.8503(2) 0.8074(2) -0.0886(3)
C14C C 0.6614(2) 0.4426(2) -0.1003(3)
H24UA H 0.85480 0.41950 0.09460
H24L H 0.84460 0.83050 -0.10480
H24C H 0.64520 0.41950 -0.09460
C15UA C 0.8180(3) 0.4442(3) 0.1362(3)
C15L C 0.8862(3) 0.8058(3) -0.0680(3)
C15C C 0.6820(3) 0.4442(3) -0.1362(3)
H25UA H 0.81900 0.42220 0.15470
H25L H 0.90470 0.82780 -0.06900
H25C H 0.68100 0.42220 -0.15470
C16UA C 0.7959(2) 0.4784(2) 0.1451(3)
C16L C 0.8951(2) 0.7716(2) -0.0459(3)
C16C C 0.7041(2) 0.4784(2) -0.1451(3)
H26UA H 0.78280 0.48030 0.17060
H26L H 0.92060 0.76970 -0.03280
H26C H 0.71720 0.48030 -0.17060
C17UA C 0.79235(17) 0.50939(18) 0.11877(19)
C17L C 0.86877(17) 0.74061(18) -0.04235(19)
C17C C 0.70765(17) 0.50939(18) -0.11877(19)
H27UA H 0.77650 0.53230 0.12570
H27L H 0.87570 0.71770 -0.02650
H27C H 0.72350 0.53230 -0.12570
C18UA C 0.81240(15) 0.50785(14) 0.08020(17)
C18L C 0.83020(15) 0.74215(14) -0.06240(17)
C18C C 0.68760(15) 0.50785(14) -0.08020(17)
C19UA C 0.80909(17) 0.43682(15) -0.10485(18)
C19L C 0.64515(17) 0.81318(15) -0.05909(18)
C19C C 0.69091(17) 0.43682(15) 0.10485(18)
H28UA H 0.80480 0.41210 -0.12120
H28L H 0.62880 0.83790 -0.05480
H28C H 0.69520 0.41210 0.12120
H29UA H 0.78290 0.44450 -0.09250
H29L H 0.65750 0.80550 -0.03290
H29C H 0.71710 0.44450 0.09250
C20UA C 0.82418(16) 0.47128(14) -0.13224(16)
C20L C 0.61776(16) 0.77872(14) -0.07418(16)
C20C C 0.67582(16) 0.47128(14) 0.13224(16)
H30C H 0.69670 0.47790 0.15260
H30L H 0.59740 0.77210 -0.05330
H30UA H 0.80330 0.47790 -0.15260
H31C H 0.65100 0.46270 0.14670
H31L H 0.60330 0.78730 -0.09900
H31UA H 0.84900 0.46270 -0.14670
C21UA C 0.85354(14) 0.54045(13) -0.13104(14)
C21L C 0.61896(14) 0.70955(13) -0.10354(14)
C21C C 0.64646(14) 0.54045(13) 0.13104(14)
H32UA H 0.87900 0.52980 -0.14270
H32L H 0.60730 0.72020 -0.12900
H32C H 0.62100 0.52980 0.14270
H33UA H 0.86060 0.56290 -0.11260
H33L H 0.63740 0.68710 -0.11060
H33C H 0.63940 0.56290 0.11260
C22UA C 0.82751(14) 0.55635(13) -0.16445(14)
C22L C 0.58555(14) 0.69365(13) -0.07751(14)
C22C C 0.67249(14) 0.55635(13) 0.16445(14)
C23UA C 0.83270(15) 0.54313(14) -0.20425(16)
C23L C 0.54575(15) 0.70687(14) -0.08270(16)
C23C C 0.66730(15) 0.54313(14) 0.20425(16)
H34UA H 0.85390 0.52450 -0.21000
H34L H 0.54000 0.72550 -0.10390
H34C H 0.64610 0.52450 0.21000
C24UA C 0.80830(15) 0.55597(15) -0.23563(18)
C24L C 0.51437(15) 0.69403(15) -0.05830(18)
C24C C 0.69170(15) 0.55597(15) 0.23563(18)
H35UA H 0.81270 0.54680 -0.26250
H35L H 0.48750 0.70320 -0.06270
H35C H 0.68730 0.54680 0.26250
C25UA C 0.77738(15) 0.58255(15) -0.22682(17)
C25L C 0.52318(15) 0.66745(15) -0.02738(17)
C25C C 0.72262(15) 0.58255(15) 0.22682(17)
H36UA H 0.75970 0.59090 -0.24780
H36L H 0.50220 0.65910 -0.00970
H36C H 0.74030 0.59090 0.24780
C26UA C 0.77166(16) 0.59709(14) -0.18849(15)
C26L C 0.56151(16) 0.65291(14) -0.02166(15)
C26C C 0.72834(16) 0.59709(14) 0.18849(15)
H37UA H 0.75050 0.61600 -0.18390
H37L H 0.56610 0.63400 -0.00050
H37C H 0.74950 0.61600 0.18390
C27UA C 0.90532(14) 0.66516(13) 0.04621(13)
C27L C 0.79621(14) 0.58484(13) -0.15532(13)
C27C C 0.59468(14) 0.66516(13) -0.04621(13)
#END

data_CSD_CIF_VIHDUN
_audit_creation_date 2013-10-02
_audit_creation_method CSD-ConQuest-V1
_database_code_CSD VIHDUN
_database_code_depnum_ccdc_archive 'CCDC 933179'
_chemical_formula_sum 'C25 H16 N4 O4'
_chemical_formula_moiety
;
C25 H16 N4 O4
;
_journal_coden_Cambridge 1441
_journal_volume 5
_journal_year 2013
_journal_page_first 830
_journal_name_full 'Nature Chemistry '
loop_
_publ_author_name
"D.Beaudoin"
"T.Maris"
"J.D.Wuest"
_chemical_name_systematic
;
1,1',1'',1'''-Methanetetrayltetrakis(4-nitrosobenzene)
;
_cell_volume   5868.331
_exptl_crystal_colour 'green'
_exptl_crystal_density_diffrn 1.482
_exptl_crystal_description 'Block'
_diffrn_ambient_temperature 150
#These two values have been output from a single CSD field.
_refine_ls_R_factor_gt 0.0317
_refine_ls_wR_factor_gt 0.0317
_symmetry_cell_setting cubic
_symmetry_space_group_name_H-M 'I -4 3 d'
_symmetry_Int_Tables_number 220
loop_
_symmetry_equiv_pos_site_id
_symmetry_equiv_pos_as_xyz
1 x,y,z
2 -x,1/2-y,z
3 1/2-x,-y,1/2+z
4 -x,1/2+y,1/2-z
5 1/2+x,1/2-y,-z
6 z,x,y
7 1/2+z,1/2-x,-y
8 1/2-z,-x,1/2+y
9 -z,1/2+x,1/2-y
10 y,z,x
11 -y,1/2+z,1/2-x
12 1/2+y,1/2-z,-x
13 1/2-y,-z,1/2+x
14 1/4+y,1/4+x,1/4+z
15 1/4-y,3/4-x,3/4+z
16 3/4+y,1/4-x,3/4-z
17 3/4-y,3/4+x,1/4-z
18 1/4+x,1/4+z,1/4+y
19 3/4-x,3/4+z,1/4-y
20 1/4-x,3/4-z,3/4+y
21 3/4+x,1/4-z,3/4-y
22 1/4+z,1/4+y,1/4+x
23 3/4+z,1/4-y,3/4-x
24 3/4-z,3/4+y,1/4-x
25 1/4-z,3/4-y,3/4+x
26 1/2+x,1/2+y,1/2+z
27 1/2-x,y,-z
28 x,-y,1/2-z
29 1/2+z,1/2+x,1/2+y
30 z,-x,1/2-y
31 -z,1/2-x,y
32 1/2-z,x,-y
33 1/2+y,1/2+z,1/2+x
34 1/2-y,z,-x
35 y,-z,1/2-x
36 -y,1/2-z,x
37 3/4+y,3/4+x,3/4+z
38 3/4-y,1/4-x,1/4+z
39 1/4+y,3/4-x,1/4-z
40 1/4-y,1/4+x,3/4-z
41 3/4+x,3/4+z,3/4+y
42 1/4-x,1/4+z,3/4-y
43 3/4-x,1/4-z,1/4+y
44 1/4+x,3/4-z,1/4-y
45 3/4+z,3/4+y,3/4+x
46 1/4+z,3/4-y,1/4-x
47 1/4-z,1/4+y,3/4-x
48 3/4-z,1/4-y,1/4+x
_cell_length_a 18.0373(4)
_cell_length_b 18.0373(4)
_cell_length_c 18.0373(4)
_cell_angle_alpha 90
_cell_angle_beta 90
_cell_angle_gamma 90
_cell_formula_units_Z 12
loop_
_atom_type_symbol
_atom_type_radius_bond
C 0.68
H 0.23
N 0.68
O 0.68
loop_
_atom_site_label
_atom_site_type_symbol
_atom_site_fract_x
_atom_site_fract_y
_atom_site_fract_z
C1 C 0.00000 0.75000 1.12500
C2 C 0.06535(6) 0.74031(7) 1.07056(7)
C3 C 0.09056(7) 0.67009(6) 1.04956(6)
H1 H 0.07160 0.62720 1.07350
C4 C 0.14336(7) 0.66281(6) 0.99364(7)
H2 H 0.16080 0.61510 0.97980
C5 C 0.17035(6) 0.72546(7) 0.95819(7)
C6 C 0.14537(7) 0.79615(7) 0.97787(7)
H3 H 0.16400 0.83890 0.95340
C7 C 0.09303(7) 0.80280(7) 1.03357(7)
H4 H 0.07550 0.85060 1.04700
N1 N 0.22460(6) 0.71186(6) 0.90107(6)
O1 O 0.25141(6) 0.76735(5) 0.87312(5)
C2A C -0.06535(6) 0.75969(7) 1.07056(7)
C3A C -0.09056(7) 0.82991(6) 1.04956(6)
H1A H -0.07160 0.87280 1.07350
C4A C -0.14336(7) 0.83719(6) 0.99364(7)
H2A H -0.16080 0.88490 0.97980
C5A C -0.17035(6) 0.77454(7) 0.95819(7)
C6A C -0.14537(7) 0.70385(7) 0.97787(7)
H3A H -0.16400 0.66110 0.95340
C7A C -0.09303(7) 0.69720(7) 1.03357(7)
H4A H -0.07550 0.64940 1.04700
N1A N -0.22460(6) 0.78814(6) 0.90107(6)
O1A O -0.25141(6) 0.73265(5) 0.87312(5)
C2P C 0.00969(6) 0.81535(7) 1.17944(7)
C3P C 0.07991(7) 0.84056(6) 1.20044(6)
H1P H 0.12280 0.82160 1.17650
C4P C 0.08719(7) 0.89336(6) 1.25636(7)
H2P H 0.13490 0.91080 1.27020
C5P C 0.02454(6) 0.92035(7) 1.29181(7)
C6P C -0.04615(7) 0.89537(7) 1.27213(7)
H3P H -0.08890 0.91400 1.29660
C7P C -0.05280(7) 0.84303(7) 1.21643(7)
H4P H -0.10060 0.82550 1.20300
N1P N 0.03814(6) 0.97460(6) 1.34893(6)
O1P O -0.01735(6) 1.00141(5) 1.37688(5)
C2LA C -0.00969(6) 0.68465(7) 1.17944(7)
C3LA C -0.07991(7) 0.65944(6) 1.20044(6)
H1LA H -0.12280 0.67840 1.17650
C4LA C -0.08719(7) 0.60664(6) 1.25636(7)
H2LA H -0.13490 0.58920 1.27020
C5LA C -0.02454(6) 0.57965(7) 1.29181(7)
C6LA C 0.04615(7) 0.60463(7) 1.27213(7)
H3LA H 0.08890 0.58600 1.29660
C7LA C 0.05280(7) 0.65697(7) 1.21643(7)
H4LA H 0.10060 0.67450 1.20300
N1LA N -0.03814(6) 0.52540(6) 1.34893(6)
O1LA O 0.01735(6) 0.49859(5) 1.37688(5)
#END

data_CSD_CIF_WAVCIF
_audit_creation_date 1994-03-29
_audit_creation_method CSD-ConQuest-V1
_database_code_CSD WAVCIF
_chemical_formula_sum 'C48 H112 O4 Si4 Ta2'
_chemical_formula_moiety
;
C48 H112 O4 Si4 Ta2
;
_journal_coden_Cambridge 4
_journal_volume 115
_journal_year 1993
_journal_page_first 5570
_journal_name_full 'J.Am.Chem.Soc. '
loop_
_publ_author_name
"R.L.Miller"
"R.Toreki"
"R.E.LaPointe"
"P.T.Wolczanski"
"G.D.van Duyne"
"D.C.Roe"
_chemical_name_systematic
;
tetrakis(Hydrido-tri-t-butylsilyloxy)-di-tantalum
;
_chemical_melting_point 453.15
_cell_volume  22247.314
_exptl_crystal_colour 'orange'
_exptl_crystal_density_diffrn 1.1
_diffrn_ambient_temperature ?
_diffrn_special_details
;
The study was carried out at room temperature,in the range 283-303K

;
#These two values have been output from a single CSD field.
_refine_ls_R_factor_gt 0.05
_refine_ls_wR_factor_gt 0.05
_symmetry_cell_setting cubic
_symmetry_space_group_name_H-M 'I -4 3 d'
_symmetry_Int_Tables_number 220
loop_
_symmetry_equiv_pos_site_id
_symmetry_equiv_pos_as_xyz
1 x,y,z
2 1/2+x,1/2+y,1/2+z
3 z,x,y
4 y,z,x
5 1/2+z,1/2+x,1/2+y
6 1/2+y,1/2+z,1/2+x
7 1/2+x,1/2-y,-z
8 x,-y,1/2-z
9 1/2+z,1/2-x,-y
10 1/2+y,1/2-z,-x
11 z,-x,1/2-y
12 y,-z,1/2-x
13 -x,1/2+y,1/2-z
14 1/2-x,y,-z
15 -z,1/2+x,1/2-y
16 -y,1/2+z,1/2-x
17 1/2-z,x,-y
18 1/2-y,z,-x
19 1/2-x,-y,1/2+z
20 -x,1/2-y,z
21 1/2-z,-x,1/2+y
22 1/2-y,-z,1/2+x
23 -z,1/2-x,y
24 -y,1/2-z,x
25 1/4+y,1/4+x,1/4+z
26 3/4+y,3/4+x,3/4+z
27 1/4+x,1/4+z,1/4+y
28 1/4+z,1/4+y,1/4+x
29 3/4+x,3/4+z,3/4+y
30 3/4+z,3/4+y,3/4+x
31 3/4-y,3/4+x,1/4-z
32 1/4-y,1/4+x,3/4-z
33 3/4-x,3/4+z,1/4-y
34 3/4-z,3/4+y,1/4-x
35 1/4-x,1/4+z,3/4-y
36 1/4-z,1/4+y,3/4-x
37 3/4+y,1/4-x,3/4-z
38 1/4+y,3/4-x,1/4-z
39 3/4+x,1/4-z,3/4-y
40 3/4+z,1/4-y,3/4-x
41 1/4+x,3/4-z,1/4-y
42 1/4+z,3/4-y,1/4-x
43 1/4-y,3/4-x,3/4+z
44 3/4-y,1/4-x,1/4+z
45 1/4-x,3/4-z,3/4+y
46 1/4-z,3/4-y,3/4+x
47 3/4-x,1/4-z,1/4+y
48 3/4-z,1/4-y,1/4+x
_cell_length_a 28.125(6)
_cell_length_b 28.125(6)
_cell_length_c 28.125(6)
_cell_angle_alpha 90
_cell_angle_beta 90
_cell_angle_gamma 90
_cell_formula_units_Z 12
loop_
_atom_type_symbol
_atom_type_radius_bond
C 0.68
H 0.23
O 0.68
Si 1.20
Ta 1.43
loop_
_atom_site_label
_atom_site_type_symbol
_atom_site_fract_x
_atom_site_fract_y
_atom_site_fract_z
Ta1 Ta 0.25000 0.3266(1) 0.00000
Si1 Si 0.1392(5) 0.2662(5) -0.0011(7)
O1 O 0.1932(9) 0.2929(9) -0.0022(15)
C1 C 0.1444(27) 0.2120(21) 0.0455(20)
C2 C 0.0918(27) 0.1859(23) 0.0457(19)
C3 C 0.1766(22) 0.1832(22) 0.0293(23)
C4 C 0.1546(24) 0.2362(22) 0.0965(21)
C5 C 0.0947(21) 0.3217(21) 0.0125(23)
C6 C 0.0855(25) 0.3503(21) -0.0318(23)
C7 C 0.0426(23) 0.2990(23) 0.0371(22)
C8 C 0.1097(23) 0.3452(21) 0.0533(21)
C9 C 0.1345(22) 0.2522(23) -0.0707(20)
C10 C 0.0893(22) 0.2265(23) -0.0761(21)
C11 C 0.1439(24) 0.2920(21) -0.0989(21)
C12 C 0.1685(21) 0.2076(20) -0.0790(24)
H1 H 0.09310 0.15650 0.06700
H2 H 0.06690 0.20890 0.05850
H3 H 0.08310 0.17600 0.01200
H4 H 0.18100 0.15570 0.05260
H5 H 0.16620 0.17020 -0.00290
H6 H 0.20800 0.20090 0.02570
H7 H 0.15410 0.21070 0.12230
H8 H 0.18710 0.25230 0.09590
H9 H 0.12900 0.26090 0.10350
H10 H 0.06380 0.37820 -0.02390
H11 H 0.11700 0.36280 -0.04490
H12 H 0.06970 0.32920 -0.05670
H13 H 0.02160 0.32640 0.04820
H14 H 0.02500 0.27950 0.01220
H15 H 0.05090 0.27790 0.06550
H16 H 0.08470 0.36960 0.06300
H17 H 0.11440 0.32120 0.08000
H18 H 0.14110 0.36220 0.04660
H19 H 0.08640 0.21400 -0.11000
H20 H 0.08830 0.19860 -0.05280
H21 H 0.06170 0.24890 -0.06910
H22 H 0.14060 0.28300 -0.13390
H23 H 0.12040 0.31840 -0.09090
H24 H 0.17770 0.30360 -0.09260
H25 H 0.16230 0.19370 -0.11200
H26 H 0.20310 0.21820 -0.07670
H27 H 0.16180 0.18240 -0.05390
Ta1OA Ta 0.25000 0.4234(1) 0.00000
O1M O 0.3068(9) 0.2929(9) 0.0022(15)
O1OA O 0.2478(9) 0.4571(9) 0.0568(15)
O1SA O 0.2522(9) 0.4571(9) -0.0568(15)
Si1M Si 0.3608(5) 0.2662(5) 0.0011(7)
Si1OA Si 0.2489(5) 0.4838(5) 0.1108(7)
Si1SA Si 0.2511(5) 0.4838(5) -0.1108(7)
C1M C 0.3556(27) 0.2120(21) -0.0455(20)
C5M C 0.4053(21) 0.3217(21) -0.0125(23)
C9M C 0.3655(22) 0.2522(23) 0.0707(20)
C1OA C 0.2955(27) 0.5380(21) 0.1056(20)
C5OA C 0.2625(21) 0.4283(21) 0.1553(23)
C9OA C 0.1793(22) 0.4978(23) 0.1155(20)
C1SA C 0.2045(27) 0.5380(21) -0.1056(20)
C5SA C 0.2375(21) 0.4283(21) -0.1553(23)
C9SA C 0.3207(22) 0.4978(23) -0.1155(20)
C2M C 0.4082(27) 0.1859(23) -0.0457(19)
C3M C 0.3234(22) 0.1832(22) -0.0293(23)
C4M C 0.3454(24) 0.2362(22) -0.0965(21)
C6M C 0.4145(25) 0.3503(21) 0.0318(23)
C7M C 0.4574(23) 0.2990(23) -0.0371(22)
C8M C 0.3903(23) 0.3452(21) -0.0533(21)
C10M C 0.4107(22) 0.2265(23) 0.0761(21)
C11M C 0.3561(24) 0.2920(21) 0.0989(21)
C12M C 0.3315(21) 0.2076(20) 0.0790(24)
C2OA C 0.2957(27) 0.5641(23) 0.1582(19)
C3OA C 0.2793(22) 0.5668(22) 0.0734(23)
C4OA C 0.3465(24) 0.5138(22) 0.0954(21)
C6OA C 0.2182(25) 0.3997(21) 0.1645(23)
C7OA C 0.2871(23) 0.4510(23) 0.2074(22)
C8OA C 0.3033(23) 0.4048(21) 0.1403(21)
C10OA C 0.1739(22) 0.5235(23) 0.1607(21)
C11OA C 0.1511(24) 0.4580(21) 0.1061(21)
C12OA C 0.1710(21) 0.5424(20) 0.0815(24)
C2SA C 0.2043(27) 0.5641(23) -0.1582(19)
C3SA C 0.2207(22) 0.5668(22) -0.0734(23)
C4SA C 0.1535(24) 0.5138(22) -0.0954(21)
C6SA C 0.2818(25) 0.3997(21) -0.1645(23)
C7SA C 0.2129(23) 0.4510(23) -0.2074(22)
C8SA C 0.1967(23) 0.4048(21) -0.1403(21)
C10SA C 0.3261(22) 0.5235(23) -0.1607(21)
C11SA C 0.3489(24) 0.4580(21) -0.1061(21)
C12SA C 0.3290(21) 0.5424(20) -0.0815(24)
H1M H 0.40690 0.15650 -0.06700
H2M H 0.43310 0.20890 -0.05850
H3M H 0.41690 0.17600 -0.01200
H4M H 0.31900 0.15570 -0.05260
H5M H 0.33380 0.17020 0.00290
H6M H 0.29200 0.20090 -0.02570
H7M H 0.34590 0.21070 -0.12230
H8M H 0.31290 0.25230 -0.09590
H9M H 0.37100 0.26090 -0.10350
H10M H 0.43620 0.37820 0.02390
H11M H 0.38300 0.36280 0.04490
H12M H 0.43030 0.32920 0.05670
H13M H 0.47840 0.32640 -0.04820
H14M H 0.47500 0.27950 -0.01220
H15M H 0.44910 0.27790 -0.06550
H16M H 0.41530 0.36960 -0.06300
H17M H 0.38560 0.32120 -0.08000
H18M H 0.35890 0.36220 -0.04660
H19M H 0.41360 0.21400 0.11000
H20M H 0.41170 0.19860 0.05280
H21M H 0.43830 0.24890 0.06910
H22M H 0.35940 0.28300 0.13390
H23M H 0.37960 0.31840 0.09090
H24M H 0.32230 0.30360 0.09260
H25M H 0.33770 0.19370 0.11200
H26M H 0.29690 0.21820 0.07670
H27M H 0.33820 0.18240 0.05390
H1OA H 0.31700 0.59350 0.15690
H2OA H 0.30850 0.54110 0.18310
H3OA H 0.26200 0.57400 0.16690
H4OA H 0.30260 0.59430 0.06900
H5OA H 0.24710 0.57980 0.08380
H6OA H 0.27570 0.54910 0.04200
H7OA H 0.37230 0.53930 0.09590
H8OA H 0.34590 0.49770 0.06290
H9OA H 0.35350 0.48910 0.12100
H10OA H 0.22610 0.37180 0.18620
H11OA H 0.20510 0.38720 0.13300
H12OA H 0.19330 0.42080 0.18030
H13OA H 0.29820 0.42360 0.22840
H14OA H 0.26220 0.47050 0.22500
H15OA H 0.31550 0.47210 0.19910
H16OA H 0.31300 0.38040 0.16530
H17OA H 0.33000 0.42880 0.13560
H18OA H 0.29660 0.38780 0.10890
H19OA H 0.14000 0.53600 0.16360
H20OA H 0.19720 0.55140 0.16170
H21OA H 0.18090 0.50110 0.18830
H22OA H 0.11610 0.46700 0.10940
H23OA H 0.15910 0.43160 0.12960
H24OA H 0.15740 0.44640 0.07230
H25OA H 0.13800 0.55630 0.08770
H26OA H 0.17330 0.53180 0.04690
H27OA H 0.19610 0.56760 0.08820
H1SA H 0.18300 0.59350 -0.15690
H2SA H 0.19150 0.54110 -0.18310
H3SA H 0.23800 0.57400 -0.16690
H4SA H 0.19740 0.59430 -0.06900
H5SA H 0.25290 0.57980 -0.08380
H6SA H 0.22430 0.54910 -0.04200
H7SA H 0.12770 0.53930 -0.09590
H8SA H 0.15410 0.49770 -0.06290
H9SA H 0.14650 0.48910 -0.12100
H10SA H 0.27390 0.37180 -0.18620
H11SA H 0.29490 0.38720 -0.13300
H12SA H 0.30670 0.42080 -0.18030
H13SA H 0.20180 0.42360 -0.22840
H14SA H 0.23780 0.47050 -0.22500
H15SA H 0.18450 0.47210 -0.19910
H16SA H 0.18700 0.38040 -0.16530
H17SA H 0.17000 0.42880 -0.13560
H18SA H 0.20340 0.38780 -0.10890
H19SA H 0.36000 0.53600 -0.16360
H20SA H 0.30280 0.55140 -0.16170
H21SA H 0.31910 0.50110 -0.18830
H22SA H 0.38390 0.46700 -0.10940
H23SA H 0.34090 0.43160 -0.12960
H24SA H 0.34260 0.44640 -0.07230
H25SA H 0.36200 0.55630 -0.08770
H26SA H 0.32670 0.53180 -0.04690
H27SA H 0.30390 0.56760 -0.08820
#END

data_CSD_CIF_WEPVOE
_audit_creation_date 2013-04-25
_audit_creation_method CSD-ConQuest-V1
_database_code_CSD WEPVOE
_database_code_depnum_ccdc_archive 'CCDC 862925'
_chemical_formula_sum 'C25 H43 B1 Mg1 N6'
_chemical_formula_moiety
;
C25 H43 B1 Mg1 N6
;
_journal_coden_Cambridge 579
_journal_volume 31
_journal_year 2012
_journal_page_first 3119
_journal_name_full 'Organometallics '
loop_
_publ_author_name
"O.Michel"
"H.M.Dietrich"
"R.Litlabo"
"K.W.Tornroos"
"C.Maichle-Mossmer"
"R.Anwander"
_chemical_name_systematic
;
(Hydrogen tris(3-t-butyl-5-methylpyrazolyl)borate-N,N',N'')-methyl-magnesium
;
_cell_volume  11242.435
_exptl_crystal_colour 'colorless'
_exptl_crystal_density_diffrn 1.094
_exptl_crystal_description 'prism'
_diffrn_ambient_temperature 123
#These two values have been output from a single CSD field.
_refine_ls_R_factor_gt 0.0297
_refine_ls_wR_factor_gt 0.0297
_symmetry_cell_setting cubic
_symmetry_space_group_name_H-M 'I -4 3 d'
_symmetry_Int_Tables_number 220
loop_
_symmetry_equiv_pos_site_id
_symmetry_equiv_pos_as_xyz
1 x,y,z
2 1/4-x,1/4+z,3/4-y
3 1/4-x,3/4-z,3/4+y
4 1/4-z,3/4-y,3/4+x
5 1/4+z,3/4-y,1/4-x
6 1/4+y,3/4-x,1/4-z
7 1/4-y,1/4+x,3/4-z
8 z,x,y
9 y,z,x
10 -y,1/2-z,x
11 z,-x,1/2-y
12 1/2-y,z,-x
13 -z,1/2-x,y
14 1/2-z,x,-y
15 y,-z,1/2-x
16 x,-y,1/2-z
17 1/2-x,y,-z
18 -x,1/2-y,z
19 1/4-y,3/4-x,3/4+z
20 1/4+y,1/4+x,1/4+z
21 1/4-z,1/4+y,3/4-x
22 1/4+z,1/4+y,1/4+x
23 1/4+x,3/4-z,1/4-y
24 1/4+x,1/4+z,1/4+y
25 1/2+x,1/2+y,1/2+z
26 3/4-x,3/4+z,1/4-y
27 3/4-x,1/4-z,1/4+y
28 3/4-z,1/4-y,1/4+x
29 3/4+z,1/4-y,3/4-x
30 3/4+y,1/4-x,3/4-z
31 3/4-y,3/4+x,1/4-z
32 1/2+z,1/2+x,1/2+y
33 1/2+y,1/2+z,1/2+x
34 1/2-y,-z,1/2+x
35 1/2+z,1/2-x,-y
36 -y,1/2+z,1/2-x
37 1/2-z,-x,1/2+y
38 -z,1/2+x,1/2-y
39 1/2+y,1/2-z,-x
40 1/2+x,1/2-y,-z
41 -x,1/2+y,1/2-z
42 1/2-x,-y,1/2+z
43 3/4-y,1/4-x,1/4+z
44 3/4+y,3/4+x,3/4+z
45 3/4-z,3/4+y,1/4-x
46 3/4+z,3/4+y,3/4+x
47 3/4+x,1/4-z,3/4-y
48 3/4+x,3/4+z,3/4+y
_cell_length_a 22.402(4)
_cell_length_b 22.402(4)
_cell_length_c 22.402(4)
_cell_angle_alpha 90
_cell_angle_beta 90
_cell_angle_gamma 90
_cell_formula_units_Z 16
loop_
_atom_type_symbol
_atom_type_radius_bond
C 0.68
H 0.23
B 0.83
Mg 1.41
N 0.68
loop_
_atom_site_label
_atom_site_type_symbol
_atom_site_fract_x
_atom_site_fract_y
_atom_site_fract_z
Mg1 Mg -0.03480(2) 0.96520(2) 0.96520(2)
N1 N 0.06001(5) 0.96838(6) 0.95970(6)
C1 C -0.08940(8) 0.91060(8) 0.91060(8)
H1 H -0.1318(10) 0.9165(9) 0.9208(9)
B1 B 0.04347(7) 1.04347(7) 1.04347(7)
H2 H 0.0705(7) 1.0705(7) 1.0705(7)
N2 N 0.08373(5) 1.00382(5) 1.00389(6)
C2 C 0.10657(7) 0.94200(6) 0.93249(6)
C3 C 0.15960(6) 0.96011(7) 0.95956(7)
H3 H 0.19890 0.94810 0.94910
C4 C 0.14373(6) 0.99903(6) 1.00463(7)
C5 C 0.09824(7) 0.89926(7) 0.88044(7)
C6 C 0.06799(9) 0.84198(8) 0.90288(9)
H4 H 0.02840 0.85170 0.91870
H5 H 0.09230 0.82410 0.93450
H6 H 0.06390 0.81370 0.86980
C7 C 0.15924(8) 0.88322(9) 0.85402(9)
H7 H 0.18400 0.86450 0.88480
H8 H 0.17890 0.91950 0.83960
H9 H 0.15380 0.85540 0.82070
C8 C 0.06046(8) 0.92846(8) 0.83159(8)
H10 H 0.08010 0.96510 0.81800
H11 H 0.02090 0.93810 0.84760
H12 H 0.05620 0.90080 0.79790
C9 C 0.18147(7) 1.03107(7) 1.04906(7)
H13 H 0.16680 1.02270 1.08940
H14 H 0.17950 1.07410 1.04150
H15 H 0.22290 1.01750 1.04550
N1G N -0.04030(5) 1.06001(6) 0.96838(6)
N1H N -0.03162(5) 0.95970(6) 1.06001(6)
H1G H -0.0792(10) 0.8682(9) 0.9165(9)
H1H H -0.0835(10) 0.9208(9) 0.8682(9)
N2G N 0.00389(5) 1.08373(5) 1.00382(6)
N2H N 0.00382(5) 1.00389(5) 1.08373(6)
C2G C -0.06751(7) 1.10657(6) 0.94200(6)
C2H C -0.05800(7) 0.93249(6) 1.10657(6)
C3G C -0.04044(6) 1.15960(7) 0.96011(7)
C3H C -0.03989(6) 0.95956(7) 1.15960(7)
H3G H -0.05090 1.19890 0.94810
H3H H -0.05190 0.94910 1.19890
C4G C 0.00463(6) 1.14373(6) 0.99903(7)
C4H C -0.00097(6) 1.00463(6) 1.14373(7)
C5G C -0.11956(7) 1.09824(7) 0.89926(7)
C5H C -0.10074(7) 0.88044(7) 1.09824(7)
C6G C -0.09712(9) 1.06799(8) 0.84198(9)
C6H C -0.15802(9) 0.90288(8) 1.06799(9)
H4G H -0.08130 1.02840 0.85170
H4H H -0.14830 0.91870 1.02840
H5G H -0.06550 1.09230 0.82410
H5H H -0.17590 0.93450 1.09230
H6G H -0.13020 1.06390 0.81370
H6H H -0.18630 0.86980 1.06390
C7G C -0.14598(8) 1.15924(9) 0.88322(9)
C7H C -0.11678(8) 0.85402(9) 1.15924(9)
H7G H -0.11520 1.18400 0.86450
H7H H -0.13550 0.88480 1.18400
H8G H -0.16040 1.17890 0.91950
H8H H -0.08050 0.83960 1.17890
H9G H -0.17930 1.15380 0.85540
H9H H -0.14460 0.82070 1.15380
C8G C -0.16841(8) 1.06046(8) 0.92846(8)
C8H C -0.07154(8) 0.83159(8) 1.06046(8)
H10G H -0.18200 1.08010 0.96510
H10H H -0.03490 0.81800 1.08010
H11G H -0.15240 1.02090 0.93810
H11H H -0.06190 0.84760 1.02090
H12G H -0.20210 1.05620 0.90080
H12H H -0.09920 0.79790 1.05620
C9G C 0.04906(7) 1.18147(7) 1.03107(7)
C9H C 0.03107(7) 1.04906(7) 1.18147(7)
H13G H 0.08940 1.16680 1.02270
H13H H 0.02270 1.08940 1.16680
H14G H 0.04150 1.17950 1.07410
H14H H 0.07410 1.04150 1.17950
H15G H 0.04550 1.22290 1.01750
H15H H 0.01750 1.04550 1.22290
#END

data_CSD_CIF_WESPOZ
_audit_creation_date 1994-10-27
_audit_creation_method CSD-ConQuest-V1
_database_code_CSD WESPOZ
_chemical_formula_sum 'C25 H43 B1 Cd1 N6'
_chemical_formula_moiety
;
C25 H43 B1 Cd1 N6
;
_journal_coden_Cambridge 9
_journal_volume 33
_journal_year 1994
_journal_page_first 1158
_journal_name_full 'Inorg.Chem. '
loop_
_publ_author_name
"A.Looney"
"A.Saleh"
"Yonghui Zhang"
"G.Parkin"
_chemical_name_systematic
;
(Hydrogen tris(3-t-butyl-5-methylpyrazolyl)borato-N,N',N'')-methyl-cadmium
;
_cell_volume  11769.889
_exptl_crystal_colour 'colorless'
_exptl_crystal_density_diffrn 1.24
_diffrn_ambient_temperature ?
_diffrn_special_details
;
The study was carried out at room temperature,in the range 283-303K

;
#These two values have been output from a single CSD field.
_refine_ls_R_factor_gt 0.0433
_refine_ls_wR_factor_gt 0.0433
_symmetry_cell_setting cubic
_symmetry_space_group_name_H-M 'I -4 3 d'
_symmetry_Int_Tables_number 220
loop_
_symmetry_equiv_pos_site_id
_symmetry_equiv_pos_as_xyz
1 x,y,z
2 1/2+x,1/2+y,1/2+z
3 z,x,y
4 y,z,x
5 1/2+z,1/2+x,1/2+y
6 1/2+y,1/2+z,1/2+x
7 1/2+x,1/2-y,-z
8 x,-y,1/2-z
9 1/2+z,1/2-x,-y
10 1/2+y,1/2-z,-x
11 z,-x,1/2-y
12 y,-z,1/2-x
13 -x,1/2+y,1/2-z
14 1/2-x,y,-z
15 -z,1/2+x,1/2-y
16 -y,1/2+z,1/2-x
17 1/2-z,x,-y
18 1/2-y,z,-x
19 1/2-x,-y,1/2+z
20 -x,1/2-y,z
21 1/2-z,-x,1/2+y
22 1/2-y,-z,1/2+x
23 -z,1/2-x,y
24 -y,1/2-z,x
25 1/4+y,1/4+x,1/4+z
26 3/4+y,3/4+x,3/4+z
27 1/4+x,1/4+z,1/4+y
28 1/4+z,1/4+y,1/4+x
29 3/4+x,3/4+z,3/4+y
30 3/4+z,3/4+y,3/4+x
31 3/4-y,3/4+x,1/4-z
32 1/4-y,1/4+x,3/4-z
33 3/4-x,3/4+z,1/4-y
34 3/4-z,3/4+y,1/4-x
35 1/4-x,1/4+z,3/4-y
36 1/4-z,1/4+y,3/4-x
37 3/4+y,1/4-x,3/4-z
38 1/4+y,3/4-x,1/4-z
39 3/4+x,1/4-z,3/4-y
40 3/4+z,1/4-y,3/4-x
41 1/4+x,3/4-z,1/4-y
42 1/4+z,3/4-y,1/4-x
43 1/4-y,3/4-x,3/4+z
44 3/4-y,1/4-x,1/4+z
45 1/4-x,3/4-z,3/4+y
46 1/4-z,3/4-y,3/4+x
47 3/4-x,1/4-z,1/4+y
48 3/4-z,1/4-y,1/4+x
_cell_length_a 22.747(2)
_cell_length_b 22.747(2)
_cell_length_c 22.747(2)
_cell_angle_alpha 90
_cell_angle_beta 90
_cell_angle_gamma 90
_cell_formula_units_Z 16
loop_
_atom_type_symbol
_atom_type_radius_bond
C 0.68
H 0.23
B 0.83
Cd 1.69
N 0.68
loop_
_atom_site_label
_atom_site_type_symbol
_atom_site_fract_x
_atom_site_fract_y
_atom_site_fract_z
Cd1 Cd 0.0411(1) 0.0411(1) 0.0411(1)
C1 C 0.0938(5) 0.0938(5) 0.0938(5)
N1 N -0.0017(4) -0.0822(3) -0.0030(4)
N2 N 0.0422(5) -0.0600(3) 0.0314(4)
C2 C -0.0047(5) -0.1412(4) 0.0006(5)
C3 C 0.0394(5) -0.1578(4) 0.0383(6)
C4 C 0.0673(5) -0.1059(5) 0.0581(5)
C5 C -0.0470(5) -0.1785(5) -0.0311(6)
C6 C 0.1187(5) -0.0981(6) 0.0997(5)
C7 C 0.0957(8) -0.0681(9) 0.1554(6)
C8 C 0.1441(8) -0.1590(7) 0.1140(8)
C9 C 0.1671(6) -0.0600(8) 0.0713(7)
B1 B -0.0422(6) -0.0422(6) -0.0422(6)
H1? H 0.13420 0.08850 0.08300
H2? H 0.08850 0.08290 0.13420
H3? H 0.08300 0.13420 0.08850
H4 H 0.04930 -0.19740 0.04920
H5 H -0.04070 -0.21880 -0.02070
H6 H -0.04160 -0.17370 -0.07260
H7 H -0.08630 -0.16730 -0.02050
H8 H 0.12780 -0.06030 0.18150
H9 H 0.06790 -0.09350 0.17460
H10 H 0.07680 -0.03180 0.14510
H11 H 0.17680 -0.15470 0.14030
H12 H 0.15700 -0.17760 0.07840
H13 H 0.11440 -0.18260 0.13240
H14 H 0.15210 -0.02130 0.06410
H15 H 0.17920 -0.07740 0.03490
H16 H 0.20020 -0.05750 0.09740
N2B N 0.0314(5) 0.0422(3) -0.0600(4)
N2C N -0.0600(5) 0.0314(3) 0.0422(4)
N1B N -0.0030(4) -0.0017(3) -0.0822(4)
N1C N -0.0822(4) -0.0030(3) -0.0017(4)
C4B C 0.0581(5) 0.0673(5) -0.1059(5)
C4C C -0.1059(5) 0.0581(5) 0.0673(5)
C2B C 0.0006(5) -0.0047(4) -0.1412(5)
C2C C -0.1412(5) 0.0006(4) -0.0047(5)
C3B C 0.0383(5) 0.0394(4) -0.1578(6)
C6B C 0.0997(5) 0.1187(6) -0.0981(5)
C3C C -0.1578(5) 0.0383(4) 0.0394(6)
C6C C -0.0981(5) 0.0997(6) 0.1187(5)
C5B C -0.0311(5) -0.0470(5) -0.1785(6)
C5C C -0.1785(5) -0.0311(5) -0.0470(6)
H4B H 0.04920 0.04930 -0.19740
C7B C 0.1554(8) 0.0957(9) -0.0681(6)
C8B C 0.1140(8) 0.1441(7) -0.1590(8)
C9B C 0.0713(6) 0.1671(8) -0.0600(7)
H4C H -0.19740 0.04920 0.04930
C7C C -0.0681(8) 0.1554(9) 0.0957(6)
C8C C -0.1590(8) 0.1140(7) 0.1441(8)
C9C C -0.0600(6) 0.0713(8) 0.1671(7)
H5B H -0.02070 -0.04070 -0.21880
H6B H -0.07260 -0.04160 -0.17370
H7B H -0.02050 -0.08630 -0.16730
H5C H -0.21880 -0.02070 -0.04070
H6C H -0.17370 -0.07260 -0.04160
H7C H -0.16730 -0.02050 -0.08630
H8B H 0.18150 0.12780 -0.06030
H9B H 0.17460 0.06790 -0.09350
H10B H 0.14510 0.07680 -0.03180
H11B H 0.14030 0.17680 -0.15470
H12B H 0.07840 0.15700 -0.17760
H13B H 0.13240 0.11440 -0.18260
H14B H 0.06410 0.15210 -0.02130
H15B H 0.03490 0.17920 -0.07740
H16B H 0.09740 0.20020 -0.05750
H8C H -0.06030 0.18150 0.12780
H9C H -0.09350 0.17460 0.06790
H10C H -0.03180 0.14510 0.07680
H11C H -0.15470 0.14030 0.17680
H12C H -0.17760 0.07840 0.15700
H13C H -0.18260 0.13240 0.11440
H14C H -0.02130 0.06410 0.15210
H15C H -0.07740 0.03490 0.17920
H16C H -0.05750 0.09740 0.20020
#END

data_CSD_CIF_XOBPAH
_audit_creation_date 2014-01-23
_audit_creation_method CSD-ConQuest-V1
_database_code_CSD XOBPAH
_database_code_depnum_ccdc_archive 'CCDC 956330'
_chemical_formula_sum 'C27 H39 Br1 Th1'
_chemical_formula_moiety
;
C27 H39 Br1 Th1
;
_journal_coden_Cambridge 579
_journal_volume 32
_journal_year 2013
_journal_page_first 6522
_journal_name_full 'Organometallics '
loop_
_publ_author_name
"N.A.Siladke"
"C.L.Webster"
"J.R.Walensky"
"M.K.Takase"
"J.W.Ziller"
"D.J.Grant"
"L.Gagliardi"
"W.J.Evans"
_chemical_name_systematic
;
Bromo-tris(\h^5^-tetramethyl-cyclopentadienyl)-thorium
;
_cell_volume   9691.389
_exptl_crystal_colour 'colorless'
_exptl_crystal_density_diffrn 1.852
_exptl_crystal_description 'polyhedron'
_diffrn_ambient_temperature 103
#These two values have been output from a single CSD field.
_refine_ls_R_factor_gt 0.0181
_refine_ls_wR_factor_gt 0.0181
_symmetry_cell_setting cubic
_symmetry_space_group_name_H-M 'I -4 3 d'
_symmetry_Int_Tables_number 220
loop_
_symmetry_equiv_pos_site_id
_symmetry_equiv_pos_as_xyz
1 x,y,z
2 1/2-x,-y,1/2+z
3 -x,1/2+y,1/2-z
4 1/2+x,1/2-y,-z
5 z,x,y
6 1/2+z,1/2-x,-y
7 1/2-z,-x,1/2+y
8 -z,1/2+x,1/2-y
9 y,z,x
10 -y,1/2+z,1/2-x
11 1/2+y,1/2-z,-x
12 1/2-y,-z,1/2+x
13 1/4+y,1/4+x,1/4+z
14 1/4-y,3/4-x,3/4+z
15 3/4+y,1/4-x,3/4-z
16 3/4-y,3/4+x,1/4-z
17 1/4+x,1/4+z,1/4+y
18 3/4-x,3/4+z,1/4-y
19 1/4-x,3/4-z,3/4+y
20 3/4+x,1/4-z,3/4-y
21 1/4+z,1/4+y,1/4+x
22 3/4+z,1/4-y,3/4-x
23 3/4-z,3/4+y,1/4-x
24 1/4-z,3/4-y,3/4+x
25 1/2+x,1/2+y,1/2+z
26 -x,1/2-y,z
27 1/2-x,y,-z
28 x,-y,1/2-z
29 1/2+z,1/2+x,1/2+y
30 z,-x,1/2-y
31 -z,1/2-x,y
32 1/2-z,x,-y
33 1/2+y,1/2+z,1/2+x
34 1/2-y,z,-x
35 y,-z,1/2-x
36 -y,1/2-z,x
37 3/4+y,3/4+x,3/4+z
38 3/4-y,1/4-x,1/4+z
39 1/4+y,3/4-x,1/4-z
40 1/4-y,1/4+x,3/4-z
41 3/4+x,3/4+z,3/4+y
42 1/4-x,1/4+z,3/4-y
43 3/4-x,1/4-z,1/4+y
44 1/4+x,3/4-z,1/4-y
45 3/4+z,3/4+y,3/4+x
46 1/4+z,3/4-y,1/4-x
47 1/4-z,1/4+y,3/4-x
48 3/4-z,1/4-y,1/4+x
_cell_length_a 21.3204(8)
_cell_length_b 21.3204(8)
_cell_length_c 21.3204(8)
_cell_angle_alpha 90
_cell_angle_beta 90
_cell_angle_gamma 90
_cell_formula_units_Z 16
loop_
_atom_type_symbol
_atom_type_radius_bond
C 0.68
H 0.23
Br 1.21
Th 2.06
loop_
_atom_site_label
_atom_site_type_symbol
_atom_site_fract_x
_atom_site_fract_y
_atom_site_fract_z
Th1 Th 0.025218(5) 0.025218(5) 0.025218(5)
Br1 Br 0.102050(19) 0.102050(19) 0.102050(19)
C1 C -0.08894(15) 0.00891(17) 0.08082(16)
H1 H -0.10440 -0.03170 0.09850
C2 C -0.06185(16) 0.05754(17) 0.11649(16)
C3 C -0.06374(16) 0.11394(17) 0.07925(17)
C4 C -0.09307(16) 0.09849(16) 0.02234(16)
C5 C -0.10713(15) 0.03378(15) 0.02140(16)
C6 C -0.04106(16) 0.05509(18) 0.18452(16)
H2 H -0.07800 0.05590 0.21190
H3 H -0.01440 0.09140 0.19370
H4 H -0.01730 0.01640 0.19190
C7 C -0.04636(18) 0.17782(16) 0.10239(17)
H5 H -0.06580 0.18510 0.14340
H6 H -0.06130 0.20950 0.07260
H7 H -0.00070 0.18080 0.10630
C8 C -0.11600(16) 0.14586(16) -0.02465(18)
H8 H -0.15220 0.16830 -0.00740
H9 H -0.12840 0.12430 -0.06330
H10 H -0.08240 0.17580 -0.03390
C9 C -0.14406(18) -0.00071(19) -0.02865(18)
H11 H -0.18900 0.00230 -0.01940
H12 H -0.13150 -0.04490 -0.02920
H13 H -0.13560 0.01820 -0.06970
C1D C 0.08082(15) -0.08894(17) 0.00891(16)
H1D H 0.09850 -0.10440 -0.03170
C2D C 0.11649(16) -0.06185(17) 0.05754(16)
C3D C 0.07925(16) -0.06374(17) 0.11394(17)
C4D C 0.02234(16) -0.09307(16) 0.09849(16)
C5D C 0.02140(15) -0.10713(15) 0.03378(16)
C6D C 0.18452(16) -0.04106(18) 0.05509(16)
H2D H 0.21190 -0.07800 0.05590
H3D H 0.19370 -0.01440 0.09140
H4D H 0.19190 -0.01730 0.01640
C7D C 0.10239(18) -0.04636(16) 0.17782(17)
H5D H 0.14340 -0.06580 0.18510
H6D H 0.07260 -0.06130 0.20950
H7D H 0.10630 -0.00070 0.18080
C8D C -0.02465(16) -0.11600(16) 0.14586(18)
H8D H -0.00740 -0.15220 0.16830
H9D H -0.06330 -0.12840 0.12430
H10D H -0.03390 -0.08240 0.17580
C9D C -0.02865(18) -0.14406(19) -0.00071(18)
H11D H -0.01940 -0.18900 0.00230
H12D H -0.02920 -0.13150 -0.04490
H13D H -0.06970 -0.13560 0.01820
C1H C 0.00891(15) 0.08082(17) -0.08894(16)
H1H H -0.03170 0.09850 -0.10440
C2H C 0.05754(16) 0.11649(17) -0.06185(16)
C3H C 0.11394(16) 0.07925(17) -0.06374(17)
C4H C 0.09849(16) 0.02234(16) -0.09307(16)
C5H C 0.03378(15) 0.02140(15) -0.10713(16)
C6H C 0.05509(16) 0.18452(18) -0.04106(16)
H2H H 0.05590 0.21190 -0.07800
H3H H 0.09140 0.19370 -0.01440
H4H H 0.01640 0.19190 -0.01730
C7H C 0.17782(18) 0.10239(16) -0.04636(17)
H5H H 0.18510 0.14340 -0.06580
H6H H 0.20950 0.07260 -0.06130
H7H H 0.18080 0.10630 -0.00070
C8H C 0.14586(16) -0.02465(16) -0.11600(18)
H8H H 0.16830 -0.00740 -0.15220
H9H H 0.12430 -0.06330 -0.12840
H10H H 0.17580 -0.03390 -0.08240
C9H C -0.00071(18) -0.02865(19) -0.14406(18)
H11H H 0.00230 -0.01940 -0.18900
H12H H -0.04490 -0.02920 -0.13150
H13H H 0.01820 -0.06970 -0.13560
#END

data_CSD_CIF_YUPXOW
_audit_creation_date 1996-04-12
_audit_creation_method CSD-ConQuest-V1
_database_code_CSD YUPXOW
_database_code_depnum_ccdc_archive 'CCDC 1307216'
_chemical_formula_sum 'C24 H40 B1 N6 Tl1'
_chemical_formula_moiety
;
C24 H40 B1 N6 Tl1
;
_journal_coden_Cambridge 580
_journal_volume 14
_journal_year 1995
_journal_page_first 811
_journal_name_full 'Polyhedron '
loop_
_publ_author_name
"Keum Yoon"
"G.Parkin"
_chemical_name_systematic
;
(Hydrogen tris(3-t-butyl-5-methylpyrazolyl)borato-N,N',N'')-thallium
;
_cell_volume  11527.860
_exptl_crystal_colour 'colorless'
_exptl_crystal_density_diffrn 1.45
_diffrn_ambient_temperature ?
_diffrn_special_details
;
The study was carried out at room temperature,in the range 283-303K

;
#These two values have been output from a single CSD field.
_refine_ls_R_factor_gt 0.0422
_refine_ls_wR_factor_gt 0.0422
_symmetry_cell_setting cubic
_symmetry_space_group_name_H-M 'I -4 3 d'
_symmetry_Int_Tables_number 220
loop_
_symmetry_equiv_pos_site_id
_symmetry_equiv_pos_as_xyz
1 x,y,z
2 1/4+y,3/4-x,1/4-z
3 1/2+x,1/2-y,-z
4 z,x,y
5 -x,1/2-y,z
6 3/4-y,1/4-x,1/4+z
7 1/4+x,3/4-z,1/4-y
8 3/4-y,3/4+x,1/4-z
9 1/2-x,y,-z
10 -z,1/2-x,y
11 1/4+y,1/4+x,1/4+z
12 3/4-x,3/4+z,1/4-y
13 1/2+z,1/2-x,-y
14 3/4+x,3/4+z,3/4+y
15 1/2-z,x,-y
16 1/4-x,3/4-z,3/4+y
17 y,z,x
18 1/4+z,3/4-y,1/4-x
19 1/4-z,3/4-y,3/4+x
20 y,-z,1/2-x
21 1/4+z,1/4+y,1/4+x
22 -y,1/2+z,1/2-x
23 -y,1/2-z,x
24 3/4-z,3/4+y,1/4-x
25 1/2+x,1/2+y,1/2+z
26 3/4+y,1/4-x,3/4-z
27 x,-y,1/2-z
28 1/2+z,1/2+x,1/2+y
29 1/2-x,-y,1/2+z
30 1/4-y,3/4-x,3/4+z
31 3/4+x,1/4-z,3/4-y
32 1/4-y,1/4+x,3/4-z
33 -x,1/2+y,1/2-z
34 1/2-z,-x,1/2+y
35 3/4+y,3/4+x,3/4+z
36 1/4-x,1/4+z,3/4-y
37 z,-x,1/2-y
38 1/4+x,1/4+z,1/4+y
39 -z,1/2+x,1/2-y
40 3/4-x,1/4-z,1/4+y
41 1/2+y,1/2+z,1/2+x
42 3/4+z,1/4-y,3/4-x
43 3/4-z,1/4-y,1/4+x
44 1/2+y,1/2-z,-x
45 3/4+z,3/4+y,3/4+x
46 1/2-y,z,-x
47 1/2-y,-z,1/2+x
48 1/4-z,1/4+y,3/4-x
_cell_length_a 22.590(2)
_cell_length_b 22.590(2)
_cell_length_c 22.590(2)
_cell_angle_alpha 90
_cell_angle_beta 90
_cell_angle_gamma 90
_cell_formula_units_Z 16
loop_
_atom_type_symbol
_atom_type_radius_bond
C 0.68
H 0.23
B 0.83
N 0.68
Tl 1.55
loop_
_atom_site_label
_atom_site_type_symbol
_atom_site_fract_x
_atom_site_fract_y
_atom_site_fract_z
Tl1 Tl 0.0492(1) 0.0492(1) 0.0492(1)
N1 N -0.0014(7) -0.0821(6) -0.0034(7)
N2 N 0.0438(10) -0.0599(7) 0.0319(7)
C1 C -0.0033(11) -0.1424(9) -0.0011(10)
C2 C 0.0388(11) -0.1604(9) 0.0373(11)
C3 C 0.067(1) -0.1083(11) 0.0570(11)
C4 C -0.0471(11) -0.1786(9) -0.0322(13)
C5 C 0.1194(9) -0.1036(10) 0.0984(11)
C6 C 0.1457(12) -0.1633(12) 0.1122(14)
C7 C 0.0956(16) -0.0745(19) 0.1573(12)
C8 C 0.1681(12) -0.0655(18) 0.0711(16)
B1 B -0.0409(11) -0.0409(11) -0.0409(11)
H1 H 0.04760 -0.20040 0.04890
H2 H -0.04070 -0.21950 -0.02320
H3 H -0.04320 -0.17260 -0.07410
H4 H -0.08610 -0.16730 -0.01990
H5 H 0.17870 -0.15860 0.13840
H6 H 0.15870 -0.18170 0.07620
H7 H 0.11630 -0.18780 0.13080
H8 H 0.12780 -0.06840 0.18410
H9 H 0.06690 -0.10020 0.17520
H10 H 0.07740 -0.03710 0.14830
H11 H 0.15320 -0.02640 0.06400
H12 H 0.18070 -0.08270 0.03440
H13 H 0.20100 -0.06340 0.09790
N2C N 0.0319(10) 0.0438(7) -0.0599(7)
N2P N -0.0599(10) 0.0319(7) 0.0438(7)
N1C N -0.0034(7) -0.0014(6) -0.0821(7)
N1P N -0.0821(7) -0.0034(6) -0.0014(7)
C3C C 0.057(1) 0.0670(11) -0.1083(11)
C3P C -0.1083(10) 0.0570(11) 0.0670(11)
C1C C -0.0011(11) -0.0033(9) -0.1424(10)
C1P C -0.1424(11) -0.0011(9) -0.0033(10)
C2C C 0.0373(11) 0.0388(9) -0.1604(11)
C5C C 0.0984(9) 0.1194(10) -0.1036(11)
C2P C -0.1604(11) 0.0373(9) 0.0388(11)
C5P C -0.1036(9) 0.0984(10) 0.1194(11)
C4C C -0.0322(11) -0.0471(9) -0.1786(13)
C4P C -0.1786(11) -0.0322(9) -0.0471(13)
H1C H 0.04890 0.04760 -0.20040
C6C C 0.1122(12) 0.1457(12) -0.1633(14)
C7C C 0.1573(16) 0.0956(19) -0.0745(12)
C8C C 0.0711(12) 0.1681(18) -0.0655(16)
H1P H -0.20040 0.04890 0.04760
C6P C -0.1633(12) 0.1122(12) 0.1457(14)
C7P C -0.0745(16) 0.1573(19) 0.0956(12)
C8P C -0.0655(12) 0.0711(18) 0.1681(16)
H2C H -0.02320 -0.04070 -0.21950
H3C H -0.07410 -0.04320 -0.17260
H4C H -0.01990 -0.08610 -0.16730
H2P H -0.21950 -0.02320 -0.04070
H3P H -0.17260 -0.07410 -0.04320
H4P H -0.16730 -0.01990 -0.08610
H5C H 0.13840 0.17870 -0.15860
H6C H 0.07620 0.15870 -0.18170
H7C H 0.13080 0.11630 -0.18780
H8C H 0.18410 0.12780 -0.06840
H9C H 0.17520 0.06690 -0.10020
H10C H 0.14830 0.07740 -0.03710
H11C H 0.06400 0.15320 -0.02640
H12C H 0.03440 0.18070 -0.08270
H13C H 0.09790 0.20100 -0.06340
H5P H -0.15860 0.13840 0.17870
H6P H -0.18170 0.07620 0.15870
H7P H -0.18780 0.13080 0.11630
H8P H -0.06840 0.18410 0.12780
H9P H -0.10020 0.17520 0.06690
H10P H -0.03710 0.14830 0.07740
H11P H -0.02640 0.06400 0.15320
H12P H -0.08270 0.03440 0.18070
H13P H -0.06340 0.09790 0.20100
#END

data_CSD_CIF_YUYWOF
_audit_creation_date 2010-11-24
_audit_creation_method CSD-ConQuest-V1
_database_code_CSD YUYWOF
_database_code_depnum_ccdc_archive 'CCDC 693155'
_chemical_formula_sum 'C108 H150 Cu4 K4 N16 O21'
_chemical_formula_moiety
;
C108 H150 Cu4 K4 N16 O21
;
_journal_coden_Cambridge 1295
_journal_volume 13
_journal_year 2010
_journal_page_first 464
_journal_name_full 'Inorg.Chem.Commun. '
loop_
_publ_author_name
"A.Mustapha"
"J.Reglinski"
"A.R.Kennedy"
_chemical_name_systematic
;
(\m~4~-Aqua)-tetrakis(\m~3~-tris(2-oxybenzylaminoethyl)amine)-octaaqua-tetra-c
opper-tetra-potassium
;
_cell_volume  35750.126
_exptl_crystal_colour 'green'
_exptl_crystal_density_diffrn 1.348
_exptl_crystal_description 'block'
_diffrn_ambient_temperature 120
#These two values have been output from a single CSD field.
_refine_ls_R_factor_gt 0.0427
_refine_ls_wR_factor_gt 0.0427
_symmetry_cell_setting cubic
_symmetry_space_group_name_H-M 'I -4 3 d'
_symmetry_Int_Tables_number 220
loop_
_symmetry_equiv_pos_site_id
_symmetry_equiv_pos_as_xyz
1 x,y,z
2 x,-y,1/2-z
3 -x,1/2-y,z
4 -x,1/2+y,1/2-z
5 1/4+y,3/4-x,1/4-z
6 1/4-y,3/4-x,3/4+z
7 3/4-y,3/4+x,1/4-z
8 3/4+y,3/4+x,3/4+z
9 y,z,x
10 -y,1/2-z,x
11 y,-z,1/2-x
12 -y,1/2+z,1/2-x
13 1/4+z,3/4-y,1/4-x
14 1/4+z,1/4+y,1/4+x
15 3/4-z,3/4+y,1/4-x
16 3/4-z,1/4-y,1/4+x
17 z,x,y
18 1/2-z,x,-y
19 -z,1/2-x,y
20 1/2+z,1/2-x,-y
21 3/4+x,3/4+z,3/4+y
22 3/4+x,1/4-z,3/4-y
23 3/4-x,3/4+z,1/4-y
24 1/4-x,3/4-z,3/4+y
25 1/2+x,1/2+y,1/2+z
26 1/2+x,1/2-y,-z
27 1/2-x,-y,1/2+z
28 1/2-x,y,-z
29 3/4+y,1/4-x,3/4-z
30 3/4-y,1/4-x,1/4+z
31 1/4-y,1/4+x,3/4-z
32 1/4+y,1/4+x,1/4+z
33 1/2+y,1/2+z,1/2+x
34 1/2-y,-z,1/2+x
35 1/2+y,1/2-z,-x
36 1/2-y,z,-x
37 3/4+z,1/4-y,3/4-x
38 3/4+z,3/4+y,3/4+x
39 1/4-z,1/4+y,3/4-x
40 1/4-z,3/4-y,3/4+x
41 1/2+z,1/2+x,1/2+y
42 -z,1/2+x,1/2-y
43 1/2-z,-x,1/2+y
44 z,-x,1/2-y
45 1/4+x,1/4+z,1/4+y
46 1/4+x,3/4-z,1/4-y
47 1/4-x,1/4+z,3/4-y
48 3/4-x,1/4-z,1/4+y
_cell_length_a 32.9427(9)
_cell_length_b 32.9427(9)
_cell_length_c 32.9427(9)
_cell_angle_alpha 90
_cell_angle_beta 90
_cell_angle_gamma 90
_cell_formula_units_Z 12
loop_
_atom_type_symbol
_atom_type_radius_bond
C 0.68
H 0.23
Cu 1.32
K 2.03
N 0.68
O 0.68
loop_
_atom_site_label
_atom_site_type_symbol
_atom_site_fract_x
_atom_site_fract_y
_atom_site_fract_z
Cu1 Cu 0.616106(12) 0.806692(12) 0.735531(11)
K1 K 0.58608(2) 0.75519(2) 0.83872(2)
O1 O 0.64128(7) 0.78912(6) 0.78522(6)
O2 O 0.56141(7) 0.69584(7) 0.78869(6)
O3 O 0.61894(6) 0.71259(7) 0.90275(7)
O4 O 0.50000 0.75000 0.87500
O5 O 0.58876(7) 0.81854(7) 0.88627(8)
O6 O 0.52228(9) 0.80153(9) 0.80344(11)
N1 N 0.66952(9) 0.82510(9) 0.70879(9)
H1 H 0.67310 0.85270 0.71370
N2 N 0.59006(9) 0.82228(8) 0.68058(8)
N3 N 0.58424(9) 0.75277(8) 0.72887(8)
H2 H 0.56970 0.74850 0.75270
N4 N 0.58283(8) 0.85737(8) 0.75815(7)
H3 H 0.55870 0.84730 0.76870
C1 C 0.67559(10) 0.80723(10) 0.79762(11)
C2 C 0.67982(10) 0.81846(9) 0.83812(12)
H4 H 0.65810 0.81420 0.85660
C3 C 0.71612(11) 0.8360(1) 0.85184(14)
H5 H 0.71900 0.84280 0.87970
C4 C 0.74765(12) 0.84342(12) 0.82520(18)
H6 H 0.77190 0.85600 0.83430
C5 C 0.74320(11) 0.83215(12) 0.78489(16)
H7 H 0.76490 0.83720 0.76660
C6 C 0.7086(1) 0.81389(10) 0.77032(12)
C7 C 0.70414(11) 0.80267(13) 0.72657(12)
H8 H 0.69940 0.77310 0.72410
H9 H 0.72940 0.80950 0.71170
C8 C 0.66323(12) 0.81902(11) 0.66501(11)
H10 H 0.68570 0.83160 0.64940
H11 H 0.66240 0.78970 0.65860
C9 C 0.62309(12) 0.83893(11) 0.65395(10)
H12 H 0.61660 0.83350 0.62510
H13 H 0.62510 0.86870 0.65770
C10 C 0.57287(13) 0.78453(11) 0.66263(10)
H14 H 0.55180 0.79150 0.64230
H15 H 0.59460 0.76900 0.64870
C11 C 0.55458(12) 0.75919(11) 0.69579(10)
H16 H 0.54610 0.73260 0.68460
H17 H 0.53020 0.77300 0.70670
C12 C 0.61111(12) 0.7167(1) 0.72263(11)
H18 H 0.62420 0.71900 0.69570
H19 H 0.63280 0.71720 0.74340
C13 C 0.58949(12) 0.67655(11) 0.72498(11)
C14 C 0.59315(17) 0.64771(14) 0.69464(13)
H20 H 0.60900 0.65380 0.67140
C15 C 0.5741(2) 0.60967(16) 0.69729(16)
H21 H 0.57700 0.59000 0.67640
C16 C 0.55092(17) 0.60191(14) 0.73105(16)
H22 H 0.53770 0.57640 0.73330
C17 C 0.54616(12) 0.62988(11) 0.76195(12)
H23 H 0.53000 0.62330 0.78490
C18 C 0.56551(11) 0.66859(10) 0.75944(10)
C19 C 0.55845(12) 0.85305(11) 0.68872(10)
H24 H 0.55300 0.86880 0.66370
H25 H 0.53300 0.83940 0.69700
C20 C 0.57231(11) 0.88152(11) 0.72210(9)
H26 H 0.55040 0.90090 0.72880
H27 H 0.59630 0.89720 0.71290
C21 C 0.60267(9) 0.88142(10) 0.79094(9)
H28 H 0.60970 0.86300 0.81360
H29 H 0.62830 0.89310 0.78030
C22 C 0.57655(9) 0.91519(9) 0.80686(9)
C23 C 0.65596(9) 0.70625(9) 0.91625(9)
C24 C 0.68872(11) 0.73166(11) 0.90536(10)
H30 H 0.68380 0.75390 0.88760
C25 C 0.72771(11) 0.72536(10) 0.91959(10)
H31 H 0.74880 0.74340 0.91190
C26 C 0.73617(12) 0.69315(10) 0.94475(11)
H32 H 0.76310 0.68860 0.95410
C27 C 0.58250(11) 0.95503(10) 0.79374(10)
H33 H 0.60480 0.96090 0.77640
H34? H 0.501(2) 0.7330(18) 0.8533(17)
H35 H 0.5731(13) 0.8368(12) 0.8722(13)
H36 H 0.5788(11) 0.8181(11) 0.9061(12)
H37 H 0.4982(11) 0.7997(12) 0.8005(11)
H38 H 0.5217(15) 0.8213(14) 0.8208(14)
Cu1DA Cu 0.443308(12) 0.866106(12) 1.014469(11)
Cu1B Cu 0.383894(12) 0.693308(12) 0.735531(11)
Cu1BA Cu 0.556692(12) 0.633894(12) 1.014469(11)
K1DA K 0.49481(2) 0.83608(2) 0.91128(2)
K1B K 0.41392(2) 0.74481(2) 0.83872(2)
K1BA K 0.50519(2) 0.66392(2) 0.91128(2)
O1DA O 0.46088(7) 0.89128(6) 0.96478(6)
O1B O 0.35872(7) 0.71088(6) 0.78522(6)
O1BA O 0.53912(7) 0.60872(6) 0.96478(6)
O2B O 0.43859(7) 0.80416(7) 0.78869(6)
O2DA O 0.55416(7) 0.81141(7) 0.96131(6)
O2BA O 0.44584(7) 0.68859(7) 0.96131(6)
O3DA O 0.53741(6) 0.86894(7) 0.84725(7)
O3B O 0.38106(6) 0.78741(7) 0.90275(7)
O3BA O 0.46259(6) 0.63106(7) 0.84725(7)
O5B O 0.41124(7) 0.68146(7) 0.88627(8)
O5DA O 0.43146(7) 0.83876(7) 0.86373(8)
O5BA O 0.56854(7) 0.66124(7) 0.86373(8)
O6B O 0.47772(9) 0.69847(9) 0.80344(11)
O6DA O 0.44847(9) 0.77228(9) 0.94656(11)
O6BA O 0.55153(9) 0.72772(9) 0.94656(11)
N1DA N 0.42490(9) 0.91952(9) 1.04121(9)
N1B N 0.33048(9) 0.67490(9) 0.70879(9)
N1BA N 0.57510(9) 0.58048(9) 1.04121(9)
H1DA H 0.39730 0.92310 1.03630
H1B H 0.32690 0.64730 0.71370
H1BA H 0.60270 0.57690 1.03630
N2DA N 0.42772(9) 0.84006(8) 1.06942(8)
N2B N 0.40994(9) 0.67772(8) 0.68058(8)
N2BA N 0.57228(9) 0.65994(8) 1.06942(8)
N3DA N 0.49723(9) 0.83424(8) 1.02113(8)
N3B N 0.41576(9) 0.74723(8) 0.72887(8)
N3BA N 0.50277(9) 0.66576(8) 1.02113(8)
H2DA H 0.50150 0.81970 0.99730
H2B H 0.43030 0.75150 0.75270
H2BA H 0.49850 0.68030 0.99730
N4DA N 0.39263(8) 0.83283(8) 0.99185(7)
N4B N 0.41717(8) 0.64263(8) 0.75815(7)
N4BA N 0.60737(8) 0.66717(8) 0.99185(7)
H3DA H 0.40270 0.80870 0.98130
H3B H 0.44130 0.65270 0.76870
H3BA H 0.59730 0.69130 0.98130
C1DA C 0.44277(10) 0.92559(10) 0.95238(11)
C1B C 0.32441(10) 0.69277(10) 0.79762(11)
C1BA C 0.55723(10) 0.57441(10) 0.95238(11)
C2DA C 0.43154(10) 0.92982(9) 0.91188(12)
C2B C 0.32018(10) 0.68154(9) 0.83812(12)
C2BA C 0.56846(10) 0.57018(9) 0.91188(12)
H4DA H 0.43580 0.90810 0.89340
H4B H 0.34190 0.68580 0.85660
H4BA H 0.56420 0.59190 0.89340
C3DA C 0.41400(11) 0.96612(10) 0.89816(14)
C3B C 0.28388(11) 0.6640(1) 0.85184(14)
C3BA C 0.58600(11) 0.53388(10) 0.89816(14)
H5DA H 0.40720 0.96900 0.87030
H5B H 0.28100 0.65720 0.87970
H5BA H 0.59280 0.53100 0.87030
C4DA C 0.40658(12) 0.99765(12) 0.92480(18)
C4B C 0.25235(12) 0.65658(12) 0.82520(18)
C4BA C 0.59342(12) 0.50235(12) 0.92480(18)
H6DA H 0.39400 1.02190 0.91570
H6B H 0.22810 0.64400 0.83430
H6BA H 0.60600 0.47810 0.91570
C5DA C 0.41785(11) 0.99320(12) 0.96511(16)
C5B C 0.25680(11) 0.66785(12) 0.78489(16)
C5BA C 0.58215(11) 0.50680(12) 0.96511(16)
H7DA H 0.41280 1.01490 0.98340
H7B H 0.23510 0.66280 0.76660
H7BA H 0.58720 0.48510 0.98340
C6DA C 0.43611(10) 0.9586(1) 0.97968(12)
C6B C 0.2914(1) 0.68611(10) 0.77032(12)
C6BA C 0.56389(10) 0.5414(1) 0.97968(12)
C7DA C 0.44733(11) 0.95414(13) 1.02343(12)
C7B C 0.29586(11) 0.69733(13) 0.72657(12)
C7BA C 0.55267(11) 0.54586(13) 1.02343(12)
H8DA H 0.47690 0.94940 1.02590
H8B H 0.30060 0.72690 0.72410
H8BA H 0.52310 0.55060 1.02590
H9DA H 0.44050 0.97940 1.03830
H9B H 0.27060 0.69050 0.71170
H9BA H 0.55950 0.52060 1.03830
C8DA C 0.43098(12) 0.91323(11) 1.08499(11)
C8B C 0.33677(12) 0.68098(11) 0.66501(11)
C8BA C 0.56902(12) 0.58677(11) 1.08499(11)
H10DA H 0.41840 0.93570 1.10060
H10B H 0.31430 0.66840 0.64940
H10BA H 0.58160 0.56430 1.10060
H11DA H 0.46030 0.91240 1.09140
H11B H 0.33760 0.71030 0.65860
H11BA H 0.53970 0.58760 1.09140
C9DA C 0.41107(12) 0.87309(11) 1.09605(10)
C9B C 0.37691(12) 0.66107(11) 0.65395(10)
C9BA C 0.58893(12) 0.62691(11) 1.09605(10)
H12BA H 0.58350 0.63340 1.12490
H12B H 0.38340 0.66650 0.62510
H12DA H 0.41650 0.86660 1.12490
H13BA H 0.61870 0.62490 1.09230
H13B H 0.37490 0.63130 0.65770
H13DA H 0.38130 0.87510 1.09230
C10DA C 0.46547(13) 0.82287(11) 1.08737(10)
C10B C 0.42713(13) 0.71547(11) 0.66263(10)
C10BA C 0.53453(13) 0.67713(11) 1.08737(10)
H14BA H 0.54150 0.69820 1.10770
H14B H 0.44820 0.70850 0.64230
H14DA H 0.45850 0.80180 1.10770
H15BA H 0.51900 0.65540 1.10130
H15B H 0.40540 0.73100 0.64870
H15DA H 0.48100 0.84460 1.10130
C11DA C 0.49081(12) 0.80458(11) 1.05421(10)
C11B C 0.44542(12) 0.74081(11) 0.69579(10)
C11BA C 0.50919(12) 0.69542(11) 1.05421(10)
H16BA H 0.48260 0.70390 1.06540
H16B H 0.45390 0.76740 0.68460
H16DA H 0.51740 0.79610 1.06540
H17BA H 0.52300 0.71980 1.04330
H17B H 0.46980 0.72700 0.70670
H17DA H 0.47700 0.78020 1.04330
C12B C 0.38889(12) 0.7833(1) 0.72263(11)
C12DA C 0.53330(12) 0.86111(10) 1.02737(11)
C12BA C 0.46670(12) 0.63889(10) 1.02737(11)
H18B H 0.37580 0.78100 0.69570
H18DA H 0.53100 0.87420 1.05430
H18BA H 0.46900 0.62580 1.05430
H19B H 0.36720 0.78280 0.74340
H19DA H 0.53280 0.88280 1.00660
H19BA H 0.46720 0.61720 1.00660
C13B C 0.41051(12) 0.82345(11) 0.72498(11)
C13DA C 0.57345(12) 0.83949(11) 1.02502(11)
C13BA C 0.42655(12) 0.66051(11) 1.02502(11)
C14B C 0.40685(17) 0.85229(14) 0.69464(13)
C14DA C 0.60229(17) 0.84315(14) 1.05536(13)
C14BA C 0.39771(17) 0.65685(14) 1.05536(13)
H20B H 0.39100 0.84620 0.67140
H20DA H 0.59620 0.85900 1.07860
H20BA H 0.40380 0.64100 1.07860
C15B C 0.4259(2) 0.89033(16) 0.69729(16)
C15DA C 0.64033(20) 0.82410(16) 1.05271(16)
C15BA C 0.35967(20) 0.67590(16) 1.05271(16)
H21B H 0.42300 0.91000 0.67640
H21DA H 0.66000 0.82700 1.07360
H21BA H 0.34000 0.67300 1.07360
C16B C 0.44908(17) 0.89809(14) 0.73105(16)
C16DA C 0.64809(17) 0.80092(14) 1.01895(16)
C16BA C 0.35191(17) 0.69908(14) 1.01895(16)
H22B H 0.46230 0.92360 0.73330
H22DA H 0.67360 0.78770 1.01670
H22BA H 0.32640 0.71230 1.01670
C17B C 0.45384(12) 0.87012(11) 0.76195(12)
C17DA C 0.62012(12) 0.79616(11) 0.98805(12)
C17BA C 0.37988(12) 0.70384(11) 0.98805(12)
H23B H 0.47000 0.87670 0.78490
H23DA H 0.62670 0.78000 0.96510
H23BA H 0.37330 0.72000 0.96510
C18B C 0.43449(11) 0.83141(10) 0.75944(10)
C18DA C 0.58141(11) 0.81551(10) 0.99056(10)
C18BA C 0.41859(11) 0.68449(10) 0.99056(10)
C19DA C 0.39695(12) 0.80845(11) 1.06128(10)
C19B C 0.44155(12) 0.64695(11) 0.68872(10)
C19BA C 0.60305(12) 0.69155(11) 1.06128(10)
H24DA H 0.38120 0.80300 1.08630
H24B H 0.44700 0.63120 0.66370
H24BA H 0.61880 0.69700 1.08630
H25DA H 0.41060 0.78300 1.05300
H25B H 0.46700 0.66060 0.69700
H25BA H 0.58940 0.71700 1.05300
C20DA C 0.36848(11) 0.82231(11) 1.02790(9)
C20B C 0.42769(11) 0.61848(11) 0.72210(9)
C20BA C 0.63152(11) 0.67769(11) 1.02790(9)
H26BA H 0.65090 0.69960 1.02120
H26B H 0.44960 0.59910 0.72880
H26DA H 0.34910 0.80040 1.02120
H27BA H 0.64720 0.65370 1.03710
H27B H 0.40370 0.60280 0.71290
H27DA H 0.35280 0.84630 1.03710
C21DA C 0.36858(9) 0.85267(10) 0.95906(9)
C21B C 0.39733(9) 0.61858(10) 0.79094(9)
C21BA C 0.63142(9) 0.64733(10) 0.95906(9)
H28DA H 0.38700 0.85970 0.93640
H28B H 0.39030 0.63700 0.81360
H28BA H 0.61300 0.64030 0.93640
H29DA H 0.35690 0.87830 0.96970
H29B H 0.37170 0.60690 0.78030
H29BA H 0.64310 0.62170 0.96970
C22DA C 0.33481(9) 0.82655(9) 0.94314(9)
C22B C 0.42345(9) 0.58481(9) 0.80686(9)
C22BA C 0.66519(9) 0.67345(9) 0.94314(9)
C23DA C 0.54375(9) 0.90596(9) 0.83375(9)
C23B C 0.34404(9) 0.79375(9) 0.91625(9)
C23BA C 0.45625(9) 0.59404(9) 0.83375(9)
C24BA C 0.48166(11) 0.56128(11) 0.84464(10)
C24B C 0.31128(11) 0.76834(11) 0.90536(10)
C24DA C 0.51834(11) 0.93872(11) 0.84464(10)
H30BA H 0.50390 0.56620 0.86240
H30B H 0.31620 0.74610 0.88760
H30DA H 0.49610 0.93380 0.86240
C25BA C 0.47536(11) 0.52229(10) 0.83041(10)
C25B C 0.27229(11) 0.77464(10) 0.91959(10)
C25DA C 0.52464(11) 0.97771(10) 0.83041(10)
H31BA H 0.49340 0.50120 0.83810
H31B H 0.25120 0.75660 0.91190
H31DA H 0.50660 0.99880 0.83810
C26BA C 0.44315(12) 0.51383(10) 0.80525(11)
C26B C 0.26383(12) 0.80685(10) 0.94475(11)
C26DA C 0.55685(12) 0.98617(10) 0.80525(11)
H32BA H 0.43860 0.48690 0.79590
H32B H 0.23690 0.81140 0.95410
H32DA H 0.56140 1.01310 0.79590
C27BA C 0.70503(11) 0.6675(1) 0.95626(10)
C27B C 0.41750(11) 0.54497(10) 0.79374(10)
C27DA C 0.29497(11) 0.8325(1) 0.95626(10)
H33BA H 0.71090 0.64520 0.97360
H33B H 0.39520 0.53910 0.77640
H33DA H 0.28910 0.85480 0.97360
H35B H 0.4269(13) 0.6632(12) 0.8722(13)
H35DA H 0.4132(13) 0.8231(12) 0.8778(13)
H35BA H 0.5868(13) 0.6769(12) 0.8778(13)
H36B H 0.4212(11) 0.6819(11) 0.9061(12)
H36DA H 0.4319(11) 0.8288(11) 0.8439(12)
H36BA H 0.5681(11) 0.6712(11) 0.8439(12)
H37B H 0.5018(11) 0.7003(12) 0.8005(11)
H37DA H 0.4503(11) 0.7482(12) 0.9495(11)
H37BA H 0.5497(11) 0.7518(12) 0.9495(11)
H38B H 0.4783(15) 0.6787(14) 0.8208(14)
H38DA H 0.4287(15) 0.7717(14) 0.9292(14)
H38BA H 0.5713(15) 0.7283(14) 0.9292(14)
#END

data_CSD_CIF_ZIPMAM
_audit_creation_date 1996-07-30
_audit_creation_method CSD-ConQuest-V1
_database_code_CSD ZIPMAM
_database_code_depnum_ccdc_archive 'CCDC 1312889'
_chemical_formula_sum 'C70 H154 N14 Se8 W6'
_chemical_formula_moiety
;
C30 H66 N6 Se8 W6,8(C5 H11 N1)
;
_journal_coden_Cambridge 9
_journal_volume 34
_journal_year 1995
_journal_page_first 6124
_journal_name_full 'Inorg.Chem. '
loop_
_publ_author_name
"Xiaobing Xie"
"R.E.McCarley"
_chemical_name_systematic
;
octakis(\m~3~-Selenido)-hexakis(piperidine)-hexa-tungsten piperidine solvate
;
_cell_volume  30225.546
_exptl_crystal_colour 'dark red'
_exptl_crystal_density_diffrn 1.929
_diffrn_ambient_temperature 223
#These two values have been output from a single CSD field.
_refine_ls_R_factor_gt 0.0397
_refine_ls_wR_factor_gt 0.0397
_symmetry_cell_setting cubic
_symmetry_space_group_name_H-M 'I -4 3 d'
_symmetry_Int_Tables_number 220
loop_
_symmetry_equiv_pos_site_id
_symmetry_equiv_pos_as_xyz
1 x,y,z
2 1/4+y,3/4-x,1/4-z
3 1/2+x,1/2-y,-z
4 z,x,y
5 -x,1/2-y,z
6 3/4-y,1/4-x,1/4+z
7 1/4+x,3/4-z,1/4-y
8 3/4-y,3/4+x,1/4-z
9 1/2-x,y,-z
10 -z,1/2-x,y
11 1/4+y,1/4+x,1/4+z
12 3/4-x,3/4+z,1/4-y
13 1/2+z,1/2-x,-y
14 3/4+x,3/4+z,3/4+y
15 1/2-z,x,-y
16 1/4-x,3/4-z,3/4+y
17 y,z,x
18 1/4+z,3/4-y,1/4-x
19 1/4-z,3/4-y,3/4+x
20 y,-z,1/2-x
21 1/4+z,1/4+y,1/4+x
22 -y,1/2+z,1/2-x
23 -y,1/2-z,x
24 3/4-z,3/4+y,1/4-x
25 1/2+x,1/2+y,1/2+z
26 3/4+y,1/4-x,3/4-z
27 x,-y,1/2-z
28 1/2+z,1/2+x,1/2+y
29 1/2-x,-y,1/2+z
30 1/4-y,3/4-x,3/4+z
31 3/4+x,1/4-z,3/4-y
32 1/4-y,1/4+x,3/4-z
33 -x,1/2+y,1/2-z
34 1/2-z,-x,1/2+y
35 3/4+y,3/4+x,3/4+z
36 1/4-x,1/4+z,3/4-y
37 z,-x,1/2-y
38 1/4+x,1/4+z,1/4+y
39 -z,1/2+x,1/2-y
40 3/4-x,1/4-z,1/4+y
41 1/2+y,1/2+z,1/2+x
42 3/4+z,1/4-y,3/4-x
43 3/4-z,1/4-y,1/4+x
44 1/2+y,1/2-z,-x
45 3/4+z,3/4+y,3/4+x
46 1/2-y,z,-x
47 1/2-y,-z,1/2+x
48 1/4-z,1/4+y,3/4-x
_cell_length_a 31.150(4)
_cell_length_b 31.150(4)
_cell_length_c 31.150(4)
_cell_angle_alpha 90
_cell_angle_beta 90
_cell_angle_gamma 90
_cell_formula_units_Z 12
loop_
_atom_type_symbol
_atom_type_radius_bond
C 0.68
H 0.23
N 0.68
Se 1.22
W 1.37
loop_
_atom_site_label
_atom_site_type_symbol
_atom_site_fract_x
_atom_site_fract_y
_atom_site_fract_z
W1 W 0.25000 0.31382(5) 0.00000
W2 W 0.30858(3) 0.37601(4) -0.01689(3)
Se1 Se 0.1773(1) 0.3169(1) -0.0387(1)
Se2 Se 0.2910(1) 0.31652(9) -0.07151(9)
N1 N 0.25000 0.2411(3) 0.00000
N2 N 0.3801(8) 0.380(1) -0.031(1)
C1 C 0.238(1) 0.217(1) -0.0361(9)
C2 C 0.237(1) 0.1701(8) -0.040(1)
C3 C 0.25000 0.149(2) 0.00000
C4 C 0.399(1) 0.349(2) -0.051(2)
C5 C 0.445(1) 0.347(1) -0.069(2)
C6 C 0.466(1) 0.388(2) -0.074(2)
C7 C 0.447(1) 0.421(2) -0.053(2)
C8 C 0.396(1) 0.421(1) -0.044(1)
H1 H 0.39060 0.37870 -0.00610
H2 H 0.25820 0.22550 -0.05830
H3 H 0.21060 0.22580 -0.04380
H4 H 0.20910 0.16200 -0.04690
H5 H 0.25660 0.16180 -0.06190
H6 H 0.22640 0.12790 0.00810
H7 H 0.27360 0.12790 -0.00810
H8 H 0.39660 0.32600 -0.03160
H9 H 0.38150 0.34420 -0.07540
H10 H 0.46160 0.32920 -0.04890
H11 H 0.44420 0.33160 -0.09550
H12 H 0.49380 0.38550 -0.06300
H13 H 0.46640 0.39400 -0.10380
H14 H 0.46020 0.42440 -0.02770
H15 H 0.45150 0.44520 -0.07210
H16 H 0.38150 0.42950 -0.07000
H17 H 0.39100 0.44140 -0.02260
N3 N 0.228(1) 0.026(2) 0.133(1)
C9 C 0.220(3) 0.072(3) 0.112(3)
C10 C 0.175(3) 0.068(3) 0.101(3)
C11 C 0.176(3) 0.029(3) 0.063(3)
C12 C 0.183(5) -0.007(5) 0.081(4)
C13 C 0.229(2) -0.006(2) 0.089(2)
H18 H 0.25360 0.02820 0.14530
H19 H 0.22430 0.09530 0.13040
H20 H 0.23690 0.07570 0.08630
H21 H 0.16640 0.09480 0.08830
H22 H 0.15980 0.06170 0.12490
H23 H 0.19630 0.03090 0.04120
H24 H 0.14730 0.02610 0.04880
H25 H 0.16490 -0.00650 0.10850
H26 H 0.17380 -0.03080 0.06600
H27 H 0.24270 0.00560 0.06790
H28 H 0.23750 -0.03280 0.09920
N4 N 0.921(2) 0.064(2) 0.330(1)
C14 C 0.926(1) 0.085(2) 0.375(2)
C15 C 0.915(2) 0.015(2) 0.335(2)
C16 C 0.875(2) 0.006(1) 0.363(2)
C17 C 0.880(2) 0.027(2) 0.407(2)
C18 C 0.886(2) 0.076(2) 0.402(1)
H29 H 0.94450 0.08200 0.31800
H30 H 0.94830 0.07480 0.39140
H31 H 0.92410 0.11680 0.38010
H32 H 0.88470 0.07810 0.43140
H33 H 0.85830 0.08150 0.38930
H34 H 0.85680 0.01010 0.41330
H35 H 0.90660 0.00850 0.41230
H36 H 0.85530 0.01820 0.33860
H37 H 0.87960 -0.02380 0.34990
H38 H 0.91900 0.01500 0.29860
H39 H 0.94540 0.01160 0.34070
H40? H 0.27630 0.24090 -0.00830
W1Q W 0.25000 0.43618(5) 0.00000
W2Q W 0.23311(3) 0.37399(4) -0.05858(3)
W2H W 0.19142(3) 0.37601(4) 0.01689(3)
W2R W 0.26689(3) 0.37399(4) 0.05858(3)
Se1R Se 0.2887(1) 0.4331(1) -0.0727(1)
Se1Q Se 0.2113(1) 0.4331(1) 0.0727(1)
Se2H Se 0.2090(1) 0.31652(9) 0.07151(9)
Se1H Se 0.3227(1) 0.3169(1) 0.0387(1)
Se2R Se 0.32151(10) 0.43348(9) 0.04100(9)
Se2Q Se 0.17849(10) 0.43348(9) -0.04100(9)
C2H C 0.263(1) 0.1701(8) 0.040(1)
C1H C 0.262(1) 0.217(1) 0.0361(9)
H2H H 0.24180 0.22550 0.05830
H3H H 0.28940 0.22580 0.04380
H4H H 0.29090 0.16200 0.04690
H5H H 0.24340 0.16180 0.06190
N2Q N 0.2190(8) 0.370(1) -0.1301(10)
C4Q C 0.199(1) 0.401(2) -0.149(2)
C5Q C 0.181(1) 0.403(1) -0.195(2)
C6Q C 0.176(1) 0.362(2) -0.216(2)
C7Q C 0.197(1) 0.329(2) -0.197(2)
C8Q C 0.206(1) 0.329(1) -0.146(1)
H1Q H 0.24390 0.37130 -0.14060
H16Q H 0.18000 0.32050 -0.13150
H17Q H 0.22740 0.30860 -0.14100
H14Q H 0.22230 0.32560 -0.21020
H15Q H 0.17790 0.30480 -0.20150
H12Q H 0.18700 0.36450 -0.24380
H13Q H 0.14620 0.35600 -0.21640
H10Q H 0.20110 0.42080 -0.21160
H11Q H 0.15450 0.41840 -0.19420
H8Q H 0.21840 0.42400 -0.14660
H9Q H 0.17460 0.40580 -0.13150
N2H N 0.1199(8) 0.380(1) 0.031(1)
C4H C 0.101(1) 0.349(2) 0.051(2)
C5H C 0.055(1) 0.347(1) 0.069(2)
C6H C 0.034(1) 0.388(2) 0.074(2)
C7H C 0.053(1) 0.421(2) 0.053(2)
C8H C 0.104(1) 0.421(1) 0.044(1)
H1H H 0.10940 0.37870 0.00610
H16H H 0.11850 0.42950 0.07000
H17H H 0.10900 0.44140 0.02260
H14H H 0.03980 0.42440 0.02770
H15H H 0.04850 0.44520 0.07210
H12H H 0.00620 0.38550 0.06300
H13H H 0.03360 0.39400 0.10380
H10H H 0.03840 0.32920 0.04890
H11H H 0.05580 0.33160 0.09550
H8H H 0.10340 0.32600 0.03160
H9H H 0.11850 0.34420 0.07540
N1Q N 0.25000 0.5089(3) 0.00000
C1Q C 0.2139(10) 0.533(1) 0.0120(9)
C2Q C 0.210(1) 0.5799(8) 0.013(1)
C3Q C 0.25000 0.601(2) 0.00000
C2R C 0.290(1) 0.5799(8) -0.013(1)
C1R C 0.2861(10) 0.533(1) -0.0120(9)
H2R H 0.30830 0.52450 0.00820
H3R H 0.29380 0.52420 -0.03940
H4R H 0.29690 0.58800 -0.04090
H5R H 0.31190 0.58820 0.00660
H6Q H 0.25810 0.62210 0.02360
H7Q H 0.24190 0.62210 -0.02360
H4Q H 0.20310 0.58800 0.04090
H5Q H 0.18810 0.58820 -0.00660
H2Q H 0.19170 0.52450 -0.00820
H3Q H 0.20620 0.52420 0.03940
N2R N 0.2810(8) 0.370(1) 0.1301(10)
C4R C 0.301(1) 0.401(2) 0.149(2)
C5R C 0.319(1) 0.403(1) 0.195(2)
C6R C 0.324(1) 0.362(2) 0.216(2)
C7R C 0.303(1) 0.329(2) 0.197(2)
C8R C 0.294(1) 0.329(1) 0.146(1)
H1R H 0.25610 0.37130 0.14060
H16R H 0.32000 0.32050 0.13150
H17R H 0.27260 0.30860 0.14100
H14R H 0.27770 0.32560 0.21020
H15R H 0.32210 0.30480 0.20150
H12R H 0.31300 0.36450 0.24380
H13R H 0.35380 0.35600 0.21640
H10R H 0.29890 0.42080 0.21160
H11R H 0.34550 0.41840 0.19420
H8R H 0.28160 0.42400 0.14660
H9R H 0.32540 0.40580 0.13150
#END
