
#######################################################################
#
#                 Cambridge Crystallographic Data Centre
#                                CCDC
#
#######################################################################
#
# If this CIF has been generated from an entry in the Cambridge
# Structural Database, then it will include bibliographic, chemical,
# crystal, experimental, refinement or atomic coordinate data resulting
# from the CCDC's data processing and validation procedures.
#
#######################################################################

data_CSD_CIF_HMGETP01
_audit_creation_date 2008-06-05
_audit_creation_method CSD-ConQuest-V1
_database_code_CSD HMGETP01
_database_code_depnum_ccdc_archive 'CCDC 625554'
_chemical_formula_sum 'C12 H36 Ge6 P4'
_chemical_formula_moiety
;
C12 H36 Ge6 P4
;
_journal_coden_Cambridge 155
_journal_volume 360
_journal_year 2007
_journal_page_first 4017
_journal_name_full 'Inorg.Chim.Acta '
loop_
_publ_author_name
"R.E.Marsh"
"D.A.Clemente"
_chemical_name_systematic
;
hexakis(Dimethylgermanium)tetraphosphide
;
_cell_volume   1295.385
_exptl_crystal_density_diffrn 1.897
_diffrn_ambient_temperature ?
_diffrn_special_details
;
The study was carried out at room temperature,in the range 283-303K

;
#These two values have been output from a single CSD field.
_refine_ls_R_factor_gt 0.0236
_refine_ls_wR_factor_gt 0.0236
loop_
_citation_database_id_CSD
_citation_special_details
HMGETP "is reinterpreted by this entry"
_symmetry_cell_setting cubic
_symmetry_space_group_name_H-M 'I -4 3 m'
_symmetry_Int_Tables_number 217
loop_
_symmetry_equiv_pos_site_id
_symmetry_equiv_pos_as_xyz
1 x,y,z
2 y,-x,-z
3 -x,-y,z
4 -y,x,-z
5 x,-y,-z
6 -y,-x,z
7 -x,y,-z
8 y,x,z
9 z,x,y
10 x,-z,-y
11 -z,-x,y
12 -x,z,-y
13 z,-x,-y
14 -x,-z,y
15 -z,x,-y
16 x,z,y
17 y,z,x
18 z,y,x
19 z,-y,-x
20 -z,-y,x
21 -z,y,-x
22 y,-z,-x
23 -y,-z,x
24 -y,z,-x
25 1/2+x,1/2+y,1/2+z
26 1/2+y,1/2-x,1/2-z
27 1/2-x,1/2-y,1/2+z
28 1/2-y,1/2+x,1/2-z
29 1/2+x,1/2-y,1/2-z
30 1/2-y,1/2-x,1/2+z
31 1/2-x,1/2+y,1/2-z
32 1/2+y,1/2+x,1/2+z
33 1/2+z,1/2+x,1/2+y
34 1/2+x,1/2-z,1/2-y
35 1/2-z,1/2-x,1/2+y
36 1/2-x,1/2+z,1/2-y
37 1/2+z,1/2-x,1/2-y
38 1/2-x,1/2-z,1/2+y
39 1/2-z,1/2+x,1/2-y
40 1/2+x,1/2+z,1/2+y
41 1/2+y,1/2+z,1/2+x
42 1/2+z,1/2+y,1/2+x
43 1/2+z,1/2-y,1/2-x
44 1/2-z,1/2-y,1/2+x
45 1/2-z,1/2+y,1/2-x
46 1/2+y,1/2-z,1/2-x
47 1/2-y,1/2-z,1/2+x
48 1/2-y,1/2+z,1/2-x
_cell_length_a 10.901(3)
_cell_length_b 10.901(3)
_cell_length_c 10.901(3)
_cell_angle_alpha 90
_cell_angle_beta 90
_cell_angle_gamma 90
_cell_formula_units_Z 2
loop_
_atom_type_symbol
_atom_type_radius_bond
C 0.68
H 0.23
Ge 1.17
P 1.05
loop_
_atom_site_label
_atom_site_type_symbol
_atom_site_fract_x
_atom_site_fract_y
_atom_site_fract_z
Ge1 Ge 0.23620(11) 0.00000 0.00000
P1 P 0.1311(2) -0.1311(2) 0.1311(2)
C1 C 0.3433(11) -0.0998(7) -0.0998(7)
H1 H 0.29490 -0.15180 -0.15180
H2 H 0.39360 -0.14990 -0.04770
Ge1A Ge 0.00000(11) -0.23620 0.00000
Ge1B Ge -0.23620(11) 0.00000 0.00000
Ge1C Ge 0.00000(11) 0.23620 0.00000
Ge1R Ge 0.00000(11) 0.00000 -0.23620
Ge1P Ge 0.00000(11) 0.00000 0.23620
P1A P -0.1311(2) -0.1311(2) -0.1311(2)
P1B P -0.1311(2) 0.1311(2) 0.1311(2)
P1C P 0.1311(2) 0.1311(2) -0.1311(2)
C1D C 0.3433(11) 0.0998(7) 0.0998(7)
C1T C 0.0998(11) -0.0998(7) -0.3433(7)
C1R C -0.0998(11) 0.0998(7) -0.3433(7)
C1C C 0.0998(11) 0.3433(7) 0.0998(7)
C1G C -0.0998(11) 0.3433(7) -0.0998(7)
C1S C 0.0998(11) 0.0998(7) 0.3433(7)
C1P C -0.0998(11) -0.0998(7) 0.3433(7)
C1B C -0.3433(11) 0.0998(7) -0.0998(7)
C1F C -0.3433(11) -0.0998(7) 0.0998(7)
C1A C -0.0998(11) -0.3433(7) 0.0998(7)
C1E C 0.0998(11) -0.3433(7) -0.0998(7)
H1D H 0.29490 0.15180 0.15180
H1T H 0.15180 -0.15180 -0.29490
H1R H -0.15180 0.15180 -0.29490
H1C H 0.15180 0.29490 0.15180
H1G H -0.15180 0.29490 -0.15180
H1S H 0.15180 0.15180 0.29490
H1P H -0.15180 -0.15180 0.29490
H1B H -0.29490 0.15180 -0.15180
H1F H -0.29490 -0.15180 0.15180
H1A H -0.15180 -0.29490 0.15180
H1E H 0.15180 -0.29490 -0.15180
H2O H 0.39360 -0.04770 -0.14990
H2D H 0.39360 0.14990 0.04770
H2I H 0.39360 0.04770 0.14990
H2T H 0.04770 -0.14990 -0.39360
H2W H 0.14990 -0.04770 -0.39360
H2R H -0.04770 0.14990 -0.39360
H2U H -0.14990 0.04770 -0.39360
H2C H 0.14990 0.39360 0.04770
H2N H 0.04770 0.39360 0.14990
H2G H -0.14990 0.39360 -0.04770
H2H H -0.04770 0.39360 -0.14990
H2V H 0.14990 0.04770 0.39360
H2S H 0.04770 0.14990 0.39360
H2P H -0.14990 -0.04770 0.39360
H2Q H -0.04770 -0.14990 0.39360
H2B H -0.39360 0.14990 -0.04770
H2M H -0.39360 0.04770 -0.14990
H2F H -0.39360 -0.14990 0.04770
H2K H -0.39360 -0.04770 0.14990
H2A H -0.14990 -0.39360 0.04770
H2L H -0.04770 -0.39360 0.14990
H2E H 0.14990 -0.39360 -0.04770
H2J H 0.04770 -0.39360 -0.14990
#END

data_CSD_CIF_HMSIPA
_audit_creation_date 1979-01-19
_audit_creation_method CSD-ConQuest-V1
_database_code_CSD HMSIPA
_database_code_depnum_ccdc_archive 'CCDC 1177199'
_chemical_formula_sum 'C12 H36 P4 Si6'
_chemical_formula_moiety
;
C12 H36 P4 Si6
;
_journal_coden_Cambridge 29
_journal_volume 442
_journal_year 1978
_journal_page_first 91
_journal_name_full 'Z.Anorg.Allg.Chem. '
loop_
_publ_author_name
"W.Honle"
"H.G.von Schnering"
_chemical_name_systematic
;
Dodecamethyl-hexasila-tetraphospha-adamantane
;
_cell_volume   1265.670
_diffrn_ambient_temperature ?
_diffrn_special_details
;
The study was carried out at room temperature,in the range 283-303K

;
#These two values have been output from a single CSD field.
_refine_ls_R_factor_gt 0.03
_refine_ls_wR_factor_gt 0.03
_symmetry_cell_setting cubic
_symmetry_space_group_name_H-M 'I -4 3 m'
_symmetry_Int_Tables_number 217
loop_
_symmetry_equiv_pos_site_id
_symmetry_equiv_pos_as_xyz
1 x,y,z
2 1/2+x,1/2+y,1/2+z
3 z,x,y
4 y,z,x
5 1/2+z,1/2+x,1/2+y
6 1/2+y,1/2+z,1/2+x
7 -y,x,-z
8 1/2-y,1/2+x,1/2-z
9 -x,z,-y
10 -z,y,-x
11 1/2-x,1/2+z,1/2-y
12 1/2-z,1/2+y,1/2-x
13 x,-y,-z
14 1/2+x,1/2-y,1/2-z
15 z,-x,-y
16 y,-z,-x
17 1/2+z,1/2-x,1/2-y
18 1/2+y,1/2-z,1/2-x
19 -y,-x,z
20 1/2-y,1/2-x,1/2+z
21 -x,-z,y
22 -z,-y,x
23 1/2-x,1/2-z,1/2+y
24 1/2-z,1/2-y,1/2+x
25 -x,y,-z
26 1/2-x,1/2+y,1/2-z
27 -z,x,-y
28 -y,z,-x
29 1/2-z,1/2+x,1/2-y
30 1/2-y,1/2+z,1/2-x
31 y,x,z
32 1/2+y,1/2+x,1/2+z
33 x,z,y
34 z,y,x
35 1/2+x,1/2+z,1/2+y
36 1/2+z,1/2+y,1/2+x
37 -x,-y,z
38 1/2-x,1/2-y,1/2+z
39 -z,-x,y
40 -y,-z,x
41 1/2-z,1/2-x,1/2+y
42 1/2-y,1/2-z,1/2+x
43 y,-x,-z
44 1/2+y,1/2-x,1/2-z
45 x,-z,-y
46 z,-y,-x
47 1/2+x,1/2-z,1/2-y
48 1/2+z,1/2-y,1/2-x
_cell_length_a 10.817
_cell_length_b 10.817
_cell_length_c 10.817
_cell_angle_alpha 90
_cell_angle_beta 90
_cell_angle_gamma 90
_cell_formula_units_Z 2
loop_
_atom_type_symbol
_atom_type_radius_bond
C 0.68
H 0.23
P 1.05
Si 1.20
loop_
_atom_site_label
_atom_site_type_symbol
_atom_site_fract_x
_atom_site_fract_y
_atom_site_fract_z
P1 P 0.37345 0.37345 0.37345
Si1 Si 0.26765 0.50000 0.50000
C1 C 0.16354 0.40286 0.59714
H1 H 0.21470 0.35400 0.64600
H2 H 0.11600 0.35960 0.55300
Si1B Si 0.50000 0.26765 0.50000
Si1C Si 0.50000 0.50000 0.26765
P1L P 0.37345 0.62655 0.62655
C1L C 0.16354 0.59714 0.40286
H2RA H 0.11600 0.44700 0.64040
P1F P 0.62655 0.37345 0.62655
C1B C 0.59714 0.16354 0.40286
C1Z C 0.40286 0.16354 0.59714
P1R P 0.62655 0.62655 0.37345
C1C C 0.40286 0.59714 0.16354
C1GA C 0.59714 0.40286 0.16354
Si1I Si 0.50000 0.50000 0.73235
Si1N Si 0.50000 0.73235 0.50000
H1L H 0.21470 0.64600 0.35400
H2L H 0.11600 0.64040 0.44700
H2FA H 0.11600 0.55300 0.35960
Si1H Si 0.73235 0.50000 0.50000
H1B H 0.64600 0.21470 0.35400
H2B H 0.55300 0.11600 0.35960
H2F H 0.64040 0.11600 0.44700
H1Z H 0.35400 0.21470 0.64600
H2Z H 0.44700 0.11600 0.64040
H2DA H 0.35960 0.11600 0.55300
H1C H 0.35400 0.64600 0.21470
H2C H 0.35960 0.55300 0.11600
H2U H 0.44700 0.64040 0.11600
H1GA H 0.64600 0.35400 0.21470
H2GA H 0.55300 0.35960 0.11600
H2MA H 0.64040 0.44700 0.11600
C1I C 0.40286 0.40286 0.83646
C1AA C 0.59714 0.59714 0.83646
C1N C 0.59714 0.83646 0.59714
C1LA C 0.40286 0.83646 0.40286
C1H C 0.83646 0.59714 0.59714
C1T C 0.83646 0.40286 0.40286
H1I H 0.35400 0.35400 0.78530
H2I H 0.44700 0.35960 0.88400
H2O H 0.35960 0.44700 0.88400
H1AA H 0.64600 0.64600 0.78530
H2AA H 0.64040 0.55300 0.88400
H2SA H 0.55300 0.64040 0.88400
H1N H 0.64600 0.78530 0.64600
H2N H 0.55300 0.88400 0.64040
H2R H 0.64040 0.88400 0.55300
H1LA H 0.35400 0.78530 0.35400
H2LA H 0.44700 0.88400 0.35960
H2PA H 0.35960 0.88400 0.44700
H1H H 0.78530 0.64600 0.64600
H2H H 0.88400 0.55300 0.64040
H2JA H 0.88400 0.64040 0.55300
H1T H 0.78530 0.35400 0.35400
H2T H 0.88400 0.44700 0.35960
H2X H 0.88400 0.35960 0.44700
#END

data_CSD_CIF_HXMTAM03
_audit_creation_date 1971-12-31
_audit_creation_method CSD-ConQuest-V1
_database_code_CSD HXMTAM03
_database_code_depnum_ccdc_archive 'CCDC 1178955'
_chemical_formula_sum 'C6 H12 N4'
_chemical_formula_moiety
;
C6 H12 N4
;
_journal_coden_Cambridge 14
_journal_volume 273
_journal_year 1963
_journal_page_first 435
_journal_name_full 'Proc.R.Soc.London,Ser.A '
loop_
_publ_author_name
"L.N.Becka"
"D.W.J.Cruickshank"
_chemical_name_systematic
;
Hexamethylenetetramine
;
_chemical_name_common
;
Methenamine; DrugBank: DB06799
;
_cell_volume    346.096
_diffrn_ambient_temperature 298
_diffrn_radiation_source 'Mo radiation'
#These two values have been output from a single CSD field.
_refine_ls_R_factor_gt 0.028
_refine_ls_wR_factor_gt 0.028
_symmetry_cell_setting cubic
_symmetry_space_group_name_H-M 'I -4 3 m'
_symmetry_Int_Tables_number 217
loop_
_symmetry_equiv_pos_site_id
_symmetry_equiv_pos_as_xyz
1 x,y,z
2 1/2+x,1/2+y,1/2+z
3 z,x,y
4 y,z,x
5 1/2+z,1/2+x,1/2+y
6 1/2+y,1/2+z,1/2+x
7 -y,x,-z
8 1/2-y,1/2+x,1/2-z
9 -x,z,-y
10 -z,y,-x
11 1/2-x,1/2+z,1/2-y
12 1/2-z,1/2+y,1/2-x
13 x,-y,-z
14 1/2+x,1/2-y,1/2-z
15 z,-x,-y
16 y,-z,-x
17 1/2+z,1/2-x,1/2-y
18 1/2+y,1/2-z,1/2-x
19 -y,-x,z
20 1/2-y,1/2-x,1/2+z
21 -x,-z,y
22 -z,-y,x
23 1/2-x,1/2-z,1/2+y
24 1/2-z,1/2-y,1/2+x
25 -x,y,-z
26 1/2-x,1/2+y,1/2-z
27 -z,x,-y
28 -y,z,-x
29 1/2-z,1/2+x,1/2-y
30 1/2-y,1/2+z,1/2-x
31 y,x,z
32 1/2+y,1/2+x,1/2+z
33 x,z,y
34 z,y,x
35 1/2+x,1/2+z,1/2+y
36 1/2+z,1/2+y,1/2+x
37 -x,-y,z
38 1/2-x,1/2-y,1/2+z
39 -z,-x,y
40 -y,-z,x
41 1/2-z,1/2-x,1/2+y
42 1/2-y,1/2-z,1/2+x
43 y,-x,-z
44 1/2+y,1/2-x,1/2-z
45 x,-z,-y
46 z,-y,-x
47 1/2+x,1/2-z,1/2-y
48 1/2+z,1/2-y,1/2-x
_cell_length_a 7.021
_cell_length_b 7.021
_cell_length_c 7.021
_cell_angle_alpha 90
_cell_angle_beta 90
_cell_angle_gamma 90
_cell_formula_units_Z 2
loop_
_atom_type_symbol
_atom_type_radius_bond
C 0.68
H 0.20
N 0.68
loop_
_atom_site_label
_atom_site_type_symbol
_atom_site_fract_x
_atom_site_fract_y
_atom_site_fract_z
C1 C 0.23770 0.00000 0.00000
H1 H 0.32750 0.08860 -0.08860
N1 N 0.12350 0.12350 0.12350
H1L H 0.32750 -0.08860 0.08860
C1C C 0.00000 0.00000 0.23770
H1C H 0.08860 -0.08860 0.32750
H1MA H -0.08860 0.08860 0.32750
N1MA N -0.12350 -0.12350 0.12350
C1LA C 0.00000 -0.23770 0.00000
H1LA H 0.08860 -0.32750 0.08860
H1N H -0.08860 -0.32750 -0.08860
N1N N 0.12350 -0.12350 -0.12350
C1O C 0.00000 0.00000 -0.23770
H1O H 0.08860 0.08860 -0.32750
H1AA H -0.08860 -0.08860 -0.32750
N1AA N -0.12350 0.12350 -0.12350
C1Z C 0.00000 0.23770 0.00000
H1Z H 0.08860 0.32750 -0.08860
H1B H -0.08860 0.32750 0.08860
C1X C -0.23770 0.00000 0.00000
H1X H -0.32750 0.08860 0.08860
H1JA H -0.32750 -0.08860 -0.08860
#END

data_CSD_CIF_HXMTAM04
_audit_creation_date 1971-12-31
_audit_creation_method CSD-ConQuest-V1
_database_code_CSD HXMTAM04
_database_code_depnum_ccdc_archive 'CCDC 1178956'
_chemical_formula_sum 'C6 H12 N4'
_chemical_formula_moiety
;
C6 H12 N4
;
_journal_coden_Cambridge 14
_journal_volume 273
_journal_year 1963
_journal_page_first 435
_journal_name_full 'Proc.R.Soc.London,Ser.A '
loop_
_publ_author_name
"L.N.Becka"
"D.W.J.Cruickshank"
_chemical_name_systematic
;
Hexamethylenetetramine
;
_chemical_name_common
;
Methenamine; DrugBank: DB06799
;
_cell_volume    332.957
_exptl_special_details
;
y(H1) is -0.0899 not 0.0899

;
_diffrn_ambient_temperature 100
_diffrn_radiation_source 'Mo radiation'
#These two values have been output from a single CSD field.
_refine_ls_R_factor_gt 0.047
_refine_ls_wR_factor_gt 0.047
_symmetry_cell_setting cubic
_symmetry_space_group_name_H-M 'I -4 3 m'
_symmetry_Int_Tables_number 217
loop_
_symmetry_equiv_pos_site_id
_symmetry_equiv_pos_as_xyz
1 x,y,z
2 1/2+x,1/2+y,1/2+z
3 z,x,y
4 y,z,x
5 1/2+z,1/2+x,1/2+y
6 1/2+y,1/2+z,1/2+x
7 -y,x,-z
8 1/2-y,1/2+x,1/2-z
9 -x,z,-y
10 -z,y,-x
11 1/2-x,1/2+z,1/2-y
12 1/2-z,1/2+y,1/2-x
13 x,-y,-z
14 1/2+x,1/2-y,1/2-z
15 z,-x,-y
16 y,-z,-x
17 1/2+z,1/2-x,1/2-y
18 1/2+y,1/2-z,1/2-x
19 -y,-x,z
20 1/2-y,1/2-x,1/2+z
21 -x,-z,y
22 -z,-y,x
23 1/2-x,1/2-z,1/2+y
24 1/2-z,1/2-y,1/2+x
25 -x,y,-z
26 1/2-x,1/2+y,1/2-z
27 -z,x,-y
28 -y,z,-x
29 1/2-z,1/2+x,1/2-y
30 1/2-y,1/2+z,1/2-x
31 y,x,z
32 1/2+y,1/2+x,1/2+z
33 x,z,y
34 z,y,x
35 1/2+x,1/2+z,1/2+y
36 1/2+z,1/2+y,1/2+x
37 -x,-y,z
38 1/2-x,1/2-y,1/2+z
39 -z,-x,y
40 -y,-z,x
41 1/2-z,1/2-x,1/2+y
42 1/2-y,1/2-z,1/2+x
43 y,-x,-z
44 1/2+y,1/2-x,1/2-z
45 x,-z,-y
46 z,-y,-x
47 1/2+x,1/2-z,1/2-y
48 1/2+z,1/2-y,1/2-x
_cell_length_a 6.931
_cell_length_b 6.931
_cell_length_c 6.931
_cell_angle_alpha 90
_cell_angle_beta 90
_cell_angle_gamma 90
_cell_formula_units_Z 2
loop_
_atom_type_symbol
_atom_type_radius_bond
C 0.68
H 0.20
N 0.68
loop_
_atom_site_label
_atom_site_type_symbol
_atom_site_fract_x
_atom_site_fract_y
_atom_site_fract_z
C1 C 0.24140 0.00000 0.00000
H1 H 0.33160 -0.08990 0.08990
N1 N 0.12510 0.12510 0.12510
H1L H 0.33160 0.08990 -0.08990
C1C C 0.00000 0.00000 0.24140
H1C H -0.08990 0.08990 0.33160
H1MA H 0.08990 -0.08990 0.33160
N1MA N -0.12510 -0.12510 0.12510
C1LA C 0.00000 -0.24140 0.00000
H1LA H -0.08990 -0.33160 -0.08990
H1N H 0.08990 -0.33160 0.08990
N1N N 0.12510 -0.12510 -0.12510
C1O C 0.00000 0.00000 -0.24140
H1O H -0.08990 -0.08990 -0.33160
H1AA H 0.08990 0.08990 -0.33160
N1AA N -0.12510 0.12510 -0.12510
C1Z C 0.00000 0.24140 0.00000
H1Z H -0.08990 0.33160 0.08990
H1B H 0.08990 0.33160 -0.08990
C1X C -0.24140 0.00000 0.00000
H1X H -0.33160 -0.08990 -0.08990
H1JA H -0.33160 0.08990 0.08990
#END

data_CSD_CIF_HXMTAM05
_audit_creation_date 1971-12-31
_audit_creation_method CSD-ConQuest-V1
_database_code_CSD HXMTAM05
_database_code_depnum_ccdc_archive 'CCDC 1178957'
_chemical_formula_sum 'C6 H12 N4'
_chemical_formula_moiety
;
C6 H12 N4
;
_journal_coden_Cambridge 14
_journal_volume 273
_journal_year 1963
_journal_page_first 435
_journal_name_full 'Proc.R.Soc.London,Ser.A '
loop_
_publ_author_name
"L.N.Becka"
"D.W.J.Cruickshank"
_chemical_name_systematic
;
Hexamethylenetetramine
;
_chemical_name_common
;
Methenamine; DrugBank: DB06799
;
_cell_volume    329.939
_exptl_special_details
;
y(H1) is -0.0908 not 0.0908

;
_diffrn_ambient_temperature 34
_diffrn_radiation_source 'Mo radiation'
#These two values have been output from a single CSD field.
_refine_ls_R_factor_gt 0.041
_refine_ls_wR_factor_gt 0.041
_symmetry_cell_setting cubic
_symmetry_space_group_name_H-M 'I -4 3 m'
_symmetry_Int_Tables_number 217
loop_
_symmetry_equiv_pos_site_id
_symmetry_equiv_pos_as_xyz
1 x,y,z
2 1/2+x,1/2+y,1/2+z
3 z,x,y
4 y,z,x
5 1/2+z,1/2+x,1/2+y
6 1/2+y,1/2+z,1/2+x
7 -y,x,-z
8 1/2-y,1/2+x,1/2-z
9 -x,z,-y
10 -z,y,-x
11 1/2-x,1/2+z,1/2-y
12 1/2-z,1/2+y,1/2-x
13 x,-y,-z
14 1/2+x,1/2-y,1/2-z
15 z,-x,-y
16 y,-z,-x
17 1/2+z,1/2-x,1/2-y
18 1/2+y,1/2-z,1/2-x
19 -y,-x,z
20 1/2-y,1/2-x,1/2+z
21 -x,-z,y
22 -z,-y,x
23 1/2-x,1/2-z,1/2+y
24 1/2-z,1/2-y,1/2+x
25 -x,y,-z
26 1/2-x,1/2+y,1/2-z
27 -z,x,-y
28 -y,z,-x
29 1/2-z,1/2+x,1/2-y
30 1/2-y,1/2+z,1/2-x
31 y,x,z
32 1/2+y,1/2+x,1/2+z
33 x,z,y
34 z,y,x
35 1/2+x,1/2+z,1/2+y
36 1/2+z,1/2+y,1/2+x
37 -x,-y,z
38 1/2-x,1/2-y,1/2+z
39 -z,-x,y
40 -y,-z,x
41 1/2-z,1/2-x,1/2+y
42 1/2-y,1/2-z,1/2+x
43 y,-x,-z
44 1/2+y,1/2-x,1/2-z
45 x,-z,-y
46 z,-y,-x
47 1/2+x,1/2-z,1/2-y
48 1/2+z,1/2-y,1/2-x
_cell_length_a 6.91
_cell_length_b 6.91
_cell_length_c 6.91
_cell_angle_alpha 90
_cell_angle_beta 90
_cell_angle_gamma 90
_cell_formula_units_Z 2
loop_
_atom_type_symbol
_atom_type_radius_bond
C 0.68
H 0.20
N 0.68
loop_
_atom_site_label
_atom_site_type_symbol
_atom_site_fract_x
_atom_site_fract_y
_atom_site_fract_z
C1 C 0.24290 0.00000 0.00000
H1 H 0.33470 -0.09080 0.09080
N1 N 0.12660 0.12660 0.12660
H1L H 0.33470 0.09080 -0.09080
C1C C 0.00000 0.00000 0.24290
H1C H -0.09080 0.09080 0.33470
H1MA H 0.09080 -0.09080 0.33470
N1MA N -0.12660 -0.12660 0.12660
C1LA C 0.00000 -0.24290 0.00000
H1LA H -0.09080 -0.33470 -0.09080
H1N H 0.09080 -0.33470 0.09080
N1N N 0.12660 -0.12660 -0.12660
C1O C 0.00000 0.00000 -0.24290
H1O H -0.09080 -0.09080 -0.33470
H1AA H 0.09080 0.09080 -0.33470
N1AA N -0.12660 0.12660 -0.12660
C1Z C 0.00000 0.24290 0.00000
H1Z H -0.09080 0.33470 0.09080
H1B H 0.09080 0.33470 -0.09080
C1X C -0.24290 0.00000 0.00000
H1X H -0.33470 -0.09080 -0.09080
H1JA H -0.33470 0.09080 0.09080
#END

data_CSD_CIF_HXMTAM07
_audit_creation_date 1994-06-13
_audit_creation_method CSD-ConQuest-V1
_database_code_CSD HXMTAM07
_database_code_depnum_ccdc_archive 'CCDC 1178958'
_chemical_formula_sum 'C6 H12 N4'
_chemical_formula_moiety
;
C6 H12 N4
;
_journal_coeditor_code "IUCr GR0219"
_journal_coden_Cambridge 621
_journal_volume 49
_journal_year 1993
_journal_page_first 685
_journal_name_full 'Acta Crystallogr.,Sect.A:Found Crystallogr. '
loop_
_publ_author_name
"M.Terpstra"
"B.M.Craven"
"R.F.Stewart"
_chemical_name_systematic
;
Hexamethylenetetramine
;
_chemical_name_common
;
Methenamine; DrugBank: DB06799
;
_cell_volume    347.132
_diffrn_ambient_temperature ?
_diffrn_radiation_probe 'neutron radiation'
_diffrn_special_details
;
The study was carried out at room temperature,in the range 283-303K

;
#These two values have been output from a single CSD field.
_refine_ls_R_factor_gt 0.012
_refine_ls_wR_factor_gt 0.012
_symmetry_cell_setting cubic
_symmetry_space_group_name_H-M 'I -4 3 m'
_symmetry_Int_Tables_number 217
loop_
_symmetry_equiv_pos_site_id
_symmetry_equiv_pos_as_xyz
1 x,y,z
2 1/2+x,1/2+y,1/2+z
3 z,x,y
4 y,z,x
5 1/2+z,1/2+x,1/2+y
6 1/2+y,1/2+z,1/2+x
7 -y,x,-z
8 1/2-y,1/2+x,1/2-z
9 -x,z,-y
10 -z,y,-x
11 1/2-x,1/2+z,1/2-y
12 1/2-z,1/2+y,1/2-x
13 x,-y,-z
14 1/2+x,1/2-y,1/2-z
15 z,-x,-y
16 y,-z,-x
17 1/2+z,1/2-x,1/2-y
18 1/2+y,1/2-z,1/2-x
19 -y,-x,z
20 1/2-y,1/2-x,1/2+z
21 -x,-z,y
22 -z,-y,x
23 1/2-x,1/2-z,1/2+y
24 1/2-z,1/2-y,1/2+x
25 -x,y,-z
26 1/2-x,1/2+y,1/2-z
27 -z,x,-y
28 -y,z,-x
29 1/2-z,1/2+x,1/2-y
30 1/2-y,1/2+z,1/2-x
31 y,x,z
32 1/2+y,1/2+x,1/2+z
33 x,z,y
34 z,y,x
35 1/2+x,1/2+z,1/2+y
36 1/2+z,1/2+y,1/2+x
37 -x,-y,z
38 1/2-x,1/2-y,1/2+z
39 -z,-x,y
40 -y,-z,x
41 1/2-z,1/2-x,1/2+y
42 1/2-y,1/2-z,1/2+x
43 y,-x,-z
44 1/2+y,1/2-x,1/2-z
45 x,-z,-y
46 z,-y,-x
47 1/2+x,1/2-z,1/2-y
48 1/2+z,1/2-y,1/2-x
_cell_length_a 7.028
_cell_length_b 7.028
_cell_length_c 7.028
_cell_angle_alpha 90
_cell_angle_beta 90
_cell_angle_gamma 90
_cell_formula_units_Z 2
loop_
_atom_type_symbol
_atom_type_radius_bond
C 0.68
H 0.23
N 0.68
loop_
_atom_site_label
_atom_site_type_symbol
_atom_site_fract_x
_atom_site_fract_y
_atom_site_fract_z
C1 C 0.2379(4) 0.00000 0.00000
N1 N 0.1222(6) 0.1222(6) 0.1222(6)
H1 H 0.3229(11) -0.0894(9) 0.08940
C1C C 0.0000(4) 0.00000 0.23790
N1MA N -0.1222(6) -0.1222(6) 0.1222(6)
C1LA C 0.0000(4) -0.23790 0.00000
N1N N 0.1222(6) -0.1222(6) -0.1222(6)
H1L H 0.3229(11) 0.0894(9) -0.08940
C1O C 0.0000(4) 0.00000 -0.23790
N1AA N -0.1222(6) 0.1222(6) -0.1222(6)
C1Z C 0.0000(4) 0.23790 0.00000
H1Z H -0.0894(11) 0.3229(9) 0.08940
H1B H 0.0894(11) 0.3229(9) -0.08940
C1X C -0.2379(4) 0.00000 0.00000
H1X H -0.3229(11) -0.0894(9) -0.08940
H1JA H -0.3229(11) 0.0894(9) 0.08940
H1O H -0.0894(11) -0.0894(9) -0.32290
H1AA H 0.0894(11) 0.0894(9) -0.32290
H1LA H -0.0894(11) -0.3229(9) -0.08940
H1N H 0.0894(11) -0.3229(9) 0.08940
H1C H -0.0894(11) 0.0894(9) 0.32290
H1MA H 0.0894(11) -0.0894(9) 0.32290
#END

data_CSD_CIF_HXMTAM08
_audit_creation_date 1994-06-13
_audit_creation_method CSD-ConQuest-V1
_database_code_CSD HXMTAM08
_database_code_depnum_ccdc_archive 'CCDC 245992'
_chemical_formula_sum 'C6 H12 N4'
_chemical_formula_moiety
;
C6 H12 N4
;
_journal_coeditor_code "IUCr GR0219"
_journal_coden_Cambridge 621
_journal_volume 49
_journal_year 1993
_journal_page_first 685
_journal_name_full 'Acta Crystallogr.,Sect.A:Found Crystallogr. '
loop_
_publ_author_name
"M.Terpstra"
"B.M.Craven"
"R.F.Stewart"
_chemical_name_systematic
;
Hexamethylenetetramine
;
_chemical_name_common
;
Methenamine; DrugBank: DB06799
;
_cell_volume    347.132
_exptl_special_details
;
Other high-order refinements are also given

;
_diffrn_ambient_temperature ?
_diffrn_radiation_probe 'Neutron'
_diffrn_special_details
;
The study was carried out at room temperature,in the range 283-303K

;
#These two values have been output from a single CSD field.
_refine_ls_R_factor_gt 0.016
_refine_ls_wR_factor_gt 0.016
_symmetry_cell_setting cubic
_symmetry_space_group_name_H-M 'I -4 3 m'
_symmetry_Int_Tables_number 217
loop_
_symmetry_equiv_pos_site_id
_symmetry_equiv_pos_as_xyz
1 x,y,z
2 1/2+x,1/2+y,1/2+z
3 z,x,y
4 y,z,x
5 1/2+z,1/2+x,1/2+y
6 1/2+y,1/2+z,1/2+x
7 -y,x,-z
8 1/2-y,1/2+x,1/2-z
9 -x,z,-y
10 -z,y,-x
11 1/2-x,1/2+z,1/2-y
12 1/2-z,1/2+y,1/2-x
13 x,-y,-z
14 1/2+x,1/2-y,1/2-z
15 z,-x,-y
16 y,-z,-x
17 1/2+z,1/2-x,1/2-y
18 1/2+y,1/2-z,1/2-x
19 -y,-x,z
20 1/2-y,1/2-x,1/2+z
21 -x,-z,y
22 -z,-y,x
23 1/2-x,1/2-z,1/2+y
24 1/2-z,1/2-y,1/2+x
25 -x,y,-z
26 1/2-x,1/2+y,1/2-z
27 -z,x,-y
28 -y,z,-x
29 1/2-z,1/2+x,1/2-y
30 1/2-y,1/2+z,1/2-x
31 y,x,z
32 1/2+y,1/2+x,1/2+z
33 x,z,y
34 z,y,x
35 1/2+x,1/2+z,1/2+y
36 1/2+z,1/2+y,1/2+x
37 -x,-y,z
38 1/2-x,1/2-y,1/2+z
39 -z,-x,y
40 -y,-z,x
41 1/2-z,1/2-x,1/2+y
42 1/2-y,1/2-z,1/2+x
43 y,-x,-z
44 1/2+y,1/2-x,1/2-z
45 x,-z,-y
46 z,-y,-x
47 1/2+x,1/2-z,1/2-y
48 1/2+z,1/2-y,1/2-x
_cell_length_a 7.028
_cell_length_b 7.028
_cell_length_c 7.028
_cell_angle_alpha 90
_cell_angle_beta 90
_cell_angle_gamma 90
_cell_formula_units_Z 2
loop_
_atom_type_symbol
_atom_type_radius_bond
C 0.68
N 0.68
loop_
_atom_site_label
_atom_site_type_symbol
_atom_site_fract_x
_atom_site_fract_y
_atom_site_fract_z
C1 C 0.23813(14) 0.00000 0.00000
N1 N 0.12250(14) 0.12250(14) 0.12250(14)
C1C C 0.00000(14) 0.00000 0.23813
N1MA N -0.12250(14) -0.12250(14) 0.12250(14)
C1LA C 0.00000(14) -0.23813 0.00000
N1N N 0.12250(14) -0.12250(14) -0.12250(14)
C1O C 0.00000(14) 0.00000 -0.23813
N1AA N -0.12250(14) 0.12250(14) -0.12250(14)
C1Z C 0.00000(14) 0.23813 0.00000
C1X C -0.23813(14) 0.00000 0.00000
#END

data_CSD_CIF_HXMTAM09
_audit_creation_date 1995-04-20
_audit_creation_method CSD-ConQuest-V1
_database_code_CSD HXMTAM09
_database_code_depnum_ccdc_archive 'CCDC 1178959'
_chemical_formula_sum 'C6 H12 N4'
_chemical_formula_moiety
;
C6 H12 N4
;
_journal_coeditor_code "IUCr BK0007"
_journal_coden_Cambridge 622
_journal_volume 50
_journal_year 1994
_journal_page_first 737
_journal_name_full 'Acta Crystallogr.,Sect.B:Struct.Sci. '
loop_
_publ_author_name
"S.P.Kampermann"
"J.R.Ruble"
"B.M.Craven"
_chemical_name_systematic
;
Hexamethylenetetramine
;
_chemical_name_common
;
Urotropin; Methenamine; DrugBank: DB06799
;
_cell_volume    336.573
_diffrn_ambient_temperature 120
#These two values have been output from a single CSD field.
_refine_ls_R_factor_gt 0.023
_refine_ls_wR_factor_gt 0.023
_symmetry_cell_setting cubic
_symmetry_space_group_name_H-M 'I -4 3 m'
_symmetry_Int_Tables_number 217
loop_
_symmetry_equiv_pos_site_id
_symmetry_equiv_pos_as_xyz
1 x,y,z
2 1/2+x,1/2+y,1/2+z
3 z,x,y
4 y,z,x
5 1/2+z,1/2+x,1/2+y
6 1/2+y,1/2+z,1/2+x
7 -y,x,-z
8 1/2-y,1/2+x,1/2-z
9 -x,z,-y
10 -z,y,-x
11 1/2-x,1/2+z,1/2-y
12 1/2-z,1/2+y,1/2-x
13 x,-y,-z
14 1/2+x,1/2-y,1/2-z
15 z,-x,-y
16 y,-z,-x
17 1/2+z,1/2-x,1/2-y
18 1/2+y,1/2-z,1/2-x
19 -y,-x,z
20 1/2-y,1/2-x,1/2+z
21 -x,-z,y
22 -z,-y,x
23 1/2-x,1/2-z,1/2+y
24 1/2-z,1/2-y,1/2+x
25 -x,y,-z
26 1/2-x,1/2+y,1/2-z
27 -z,x,-y
28 -y,z,-x
29 1/2-z,1/2+x,1/2-y
30 1/2-y,1/2+z,1/2-x
31 y,x,z
32 1/2+y,1/2+x,1/2+z
33 x,z,y
34 z,y,x
35 1/2+x,1/2+z,1/2+y
36 1/2+z,1/2+y,1/2+x
37 -x,-y,z
38 1/2-x,1/2-y,1/2+z
39 -z,-x,y
40 -y,-z,x
41 1/2-z,1/2-x,1/2+y
42 1/2-y,1/2-z,1/2+x
43 y,-x,-z
44 1/2+y,1/2-x,1/2-z
45 x,-z,-y
46 z,-y,-x
47 1/2+x,1/2-z,1/2-y
48 1/2+z,1/2-y,1/2-x
_cell_length_a 6.956(3)
_cell_length_b 6.956(3)
_cell_length_c 6.956(3)
_cell_angle_alpha 90
_cell_angle_beta 90
_cell_angle_gamma 90
_cell_formula_units_Z 2
loop_
_atom_type_symbol
_atom_type_radius_bond
C 0.68
H 0.23
N 0.68
loop_
_atom_site_label
_atom_site_type_symbol
_atom_site_fract_x
_atom_site_fract_y
_atom_site_fract_z
C1 C 0.24152(8) 0.00000 0.00000
N1 N 0.1243(2) 0.1243(2) 0.1243(2)
H1 H 0.3315(4) -0.0913(4) 0.09130
N1L N 0.1243(2) -0.1243(2) -0.1243(2)
H1L H 0.3315(4) 0.0913(4) -0.09130
C1B C 0.00000(8) 0.24152 0.00000
C1C C 0.00000(8) 0.00000 0.24152
C1I C 0.00000(8) 0.00000 -0.24152
C1N C 0.00000(8) -0.24152 0.00000
N1F N -0.1243(2) 0.1243(2) -0.1243(2)
H1B H 0.0913(4) 0.3315(4) -0.09130
H1Z H -0.0913(4) 0.3315(4) 0.09130
N1R N -0.1243(2) -0.1243(2) 0.1243(2)
H1C H -0.0913(4) 0.0913(4) 0.33150
H1GA H 0.0913(4) -0.0913(4) 0.33150
H1I H -0.0913(4) -0.0913(4) -0.33150
H1AA H 0.0913(4) 0.0913(4) -0.33150
H1N H 0.0913(4) -0.3315(4) 0.09130
H1LA H -0.0913(4) -0.3315(4) -0.09130
C1H C -0.24152(8) 0.00000 0.00000
H1H H -0.3315(4) 0.0913(4) 0.09130
H1T H -0.3315(4) -0.0913(4) -0.09130
#END

data_CSD_CIF_HXMTAM10
_audit_creation_date 1996-04-12
_audit_creation_method CSD-ConQuest-V1
_database_code_CSD HXMTAM10
_database_code_depnum_ccdc_archive 'CCDC 1178960'
_chemical_formula_sum 'C6 H12 N4'
_chemical_formula_moiety
;
C6 H12 N4
;
_journal_coeditor_code "IUCr BK0011"
_journal_coden_Cambridge 621
_journal_volume 51
_journal_year 1995
_journal_page_first 489
_journal_name_full 'Acta Crystallogr.,Sect.A:Found Crystallogr. '
loop_
_publ_author_name
"S.P.Kampermann"
"T.M.Sabine"
"B.M.Craven"
"R.K.McMullan"
_chemical_name_systematic
;
Hexamethylenetetramine
;
_chemical_name_common
;
Methenamine; DrugBank: DB06799
;
_cell_volume    332.438
_exptl_special_details
;
z(H) is 0.0922 not -0.0922

;
_diffrn_ambient_temperature 15
_diffrn_radiation_probe 'neutron radiation'
#These two values have been output from a single CSD field.
_refine_ls_R_factor_gt 0.028
_refine_ls_wR_factor_gt 0.028
_symmetry_cell_setting cubic
_symmetry_space_group_name_H-M 'I -4 3 m'
_symmetry_Int_Tables_number 217
loop_
_symmetry_equiv_pos_site_id
_symmetry_equiv_pos_as_xyz
1 x,y,z
2 y,-x,-z
3 x,-y,-z
4 z,x,y
5 -x,-y,z
6 -y,-x,z
7 x,-z,-y
8 -y,x,-z
9 -x,y,-z
10 -z,-x,y
11 y,x,z
12 -x,z,-y
13 z,-x,-y
14 x,z,y
15 -z,x,-y
16 -x,-z,y
17 y,z,x
18 z,-y,-x
19 -z,-y,x
20 y,-z,-x
21 z,y,x
22 -y,z,-x
23 -y,-z,x
24 -z,y,-x
25 1/2+x,1/2+y,1/2+z
26 1/2+y,1/2-x,1/2-z
27 1/2+x,1/2-y,1/2-z
28 1/2+z,1/2+x,1/2+y
29 1/2-x,1/2-y,1/2+z
30 1/2-y,1/2-x,1/2+z
31 1/2+x,1/2-z,1/2-y
32 1/2-y,1/2+x,1/2-z
33 1/2-x,1/2+y,1/2-z
34 1/2-z,1/2-x,1/2+y
35 1/2+y,1/2+x,1/2+z
36 1/2-x,1/2+z,1/2-y
37 1/2+z,1/2-x,1/2-y
38 1/2+x,1/2+z,1/2+y
39 1/2-z,1/2+x,1/2-y
40 1/2-x,1/2-z,1/2+y
41 1/2+y,1/2+z,1/2+x
42 1/2+z,1/2-y,1/2-x
43 1/2-z,1/2-y,1/2+x
44 1/2+y,1/2-z,1/2-x
45 1/2+z,1/2+y,1/2+x
46 1/2-y,1/2+z,1/2-x
47 1/2-y,1/2-z,1/2+x
48 1/2-z,1/2+y,1/2-x
_cell_length_a 6.9274(8)
_cell_length_b 6.9274(8)
_cell_length_c 6.9274(8)
_cell_angle_alpha 90
_cell_angle_beta 90
_cell_angle_gamma 90
_cell_formula_units_Z 2
loop_
_atom_type_symbol
_atom_type_radius_bond
C 0.68
H 0.23
N 0.68
loop_
_atom_site_label
_atom_site_type_symbol
_atom_site_fract_x
_atom_site_fract_y
_atom_site_fract_z
C1 C 0.2431(1) 0.00000 0.00000
N1 N 0.1251(2) 0.1251(2) 0.1251(2)
H1 H 0.3331(5) -0.0922(3) 0.0922(3)
C1G C 0.0000(1) 0.24310 0.00000
N1G N -0.1251(2) 0.1251(2) -0.1251(2)
C1D C -0.2431(1) 0.00000 0.00000
N1D N -0.1251(2) -0.1251(2) 0.1251(2)
C1A C 0.0000(1) -0.24310 0.00000
N1A N 0.1251(2) -0.1251(2) -0.1251(2)
H1B H 0.3331(5) 0.0922(3) -0.0922(3)
C1Q C 0.0000(1) 0.00000 -0.24310
H1Q H 0.0922(5) 0.0922(3) -0.3331(3)
H1W H -0.0922(5) -0.0922(3) -0.3331(3)
H1A H -0.0922(5) -0.3331(3) -0.0922(3)
H1E H 0.0922(5) -0.3331(3) 0.0922(3)
C1V C 0.0000(1) 0.00000 0.24310
H1V H 0.0922(5) -0.0922(3) 0.3331(3)
H1P H -0.0922(5) 0.0922(3) 0.3331(3)
H1D H -0.3331(5) 0.0922(3) 0.0922(3)
H1H H -0.3331(5) -0.0922(3) -0.0922(3)
H1G H 0.0922(5) 0.3331(3) -0.0922(3)
H1J H -0.0922(5) 0.3331(3) 0.0922(3)
#END

data_CSD_CIF_HXMTAM11
_audit_creation_date 1996-04-12
_audit_creation_method CSD-ConQuest-V1
_database_code_CSD HXMTAM11
_database_code_depnum_ccdc_archive 'CCDC 1178961'
_chemical_formula_sum 'C6 H12 N4'
_chemical_formula_moiety
;
C6 H12 N4
;
_journal_coeditor_code "IUCr BK0011"
_journal_coden_Cambridge 621
_journal_volume 51
_journal_year 1995
_journal_page_first 489
_journal_name_full 'Acta Crystallogr.,Sect.A:Found Crystallogr. '
loop_
_publ_author_name
"S.P.Kampermann"
"T.M.Sabine"
"B.M.Craven"
"R.K.McMullan"
_chemical_name_systematic
;
Hexamethylenetetramine
;
_chemical_name_common
;
Methenamine; DrugBank: DB06799
;
_cell_volume    333.346
_exptl_special_details
;
z(H) is 0.0923 not -0.0923

;
_diffrn_ambient_temperature 50
_diffrn_radiation_probe 'neutron radiation'
#These two values have been output from a single CSD field.
_refine_ls_R_factor_gt 0.028
_refine_ls_wR_factor_gt 0.028
_symmetry_cell_setting cubic
_symmetry_space_group_name_H-M 'I -4 3 m'
_symmetry_Int_Tables_number 217
loop_
_symmetry_equiv_pos_site_id
_symmetry_equiv_pos_as_xyz
1 x,y,z
2 y,-x,-z
3 x,-y,-z
4 z,x,y
5 -x,-y,z
6 -y,-x,z
7 x,-z,-y
8 -y,x,-z
9 -x,y,-z
10 -z,-x,y
11 y,x,z
12 -x,z,-y
13 z,-x,-y
14 x,z,y
15 -z,x,-y
16 -x,-z,y
17 y,z,x
18 z,-y,-x
19 -z,-y,x
20 y,-z,-x
21 z,y,x
22 -y,z,-x
23 -y,-z,x
24 -z,y,-x
25 1/2+x,1/2+y,1/2+z
26 1/2+y,1/2-x,1/2-z
27 1/2+x,1/2-y,1/2-z
28 1/2+z,1/2+x,1/2+y
29 1/2-x,1/2-y,1/2+z
30 1/2-y,1/2-x,1/2+z
31 1/2+x,1/2-z,1/2-y
32 1/2-y,1/2+x,1/2-z
33 1/2-x,1/2+y,1/2-z
34 1/2-z,1/2-x,1/2+y
35 1/2+y,1/2+x,1/2+z
36 1/2-x,1/2+z,1/2-y
37 1/2+z,1/2-x,1/2-y
38 1/2+x,1/2+z,1/2+y
39 1/2-z,1/2+x,1/2-y
40 1/2-x,1/2-z,1/2+y
41 1/2+y,1/2+z,1/2+x
42 1/2+z,1/2-y,1/2-x
43 1/2-z,1/2-y,1/2+x
44 1/2+y,1/2-z,1/2-x
45 1/2+z,1/2+y,1/2+x
46 1/2-y,1/2+z,1/2-x
47 1/2-y,1/2-z,1/2+x
48 1/2-z,1/2+y,1/2-x
_cell_length_a 6.9337(7)
_cell_length_b 6.9337(7)
_cell_length_c 6.9337(7)
_cell_angle_alpha 90
_cell_angle_beta 90
_cell_angle_gamma 90
_cell_formula_units_Z 2
loop_
_atom_type_symbol
_atom_type_radius_bond
C 0.68
H 0.23
N 0.68
loop_
_atom_site_label
_atom_site_type_symbol
_atom_site_fract_x
_atom_site_fract_y
_atom_site_fract_z
C1 C 0.2427(1) 0.00000 0.00000
N1 N 0.1248(2) 0.1248(2) 0.1248(2)
H1 H 0.3334(5) -0.0923(3) 0.0923(3)
C1G C 0.0000(1) 0.24270 0.00000
N1G N -0.1248(2) 0.1248(2) -0.1248(2)
C1D C -0.2427(1) 0.00000 0.00000
N1D N -0.1248(2) -0.1248(2) 0.1248(2)
C1A C 0.0000(1) -0.24270 0.00000
N1A N 0.1248(2) -0.1248(2) -0.1248(2)
H1B H 0.3334(5) 0.0923(3) -0.0923(3)
C1Q C 0.0000(1) 0.00000 -0.24270
H1Q H 0.0923(5) 0.0923(3) -0.3334(3)
H1W H -0.0923(5) -0.0923(3) -0.3334(3)
H1A H -0.0923(5) -0.3334(3) -0.0923(3)
H1E H 0.0923(5) -0.3334(3) 0.0923(3)
C1V C 0.0000(1) 0.00000 0.24270
H1V H 0.0923(5) -0.0923(3) 0.3334(3)
H1P H -0.0923(5) 0.0923(3) 0.3334(3)
H1D H -0.3334(5) 0.0923(3) 0.0923(3)
H1H H -0.3334(5) -0.0923(3) -0.0923(3)
H1G H 0.0923(5) 0.3334(3) -0.0923(3)
H1J H -0.0923(5) 0.3334(3) 0.0923(3)
#END

data_CSD_CIF_HXMTAM12
_audit_creation_date 1996-04-12
_audit_creation_method CSD-ConQuest-V1
_database_code_CSD HXMTAM12
_database_code_depnum_ccdc_archive 'CCDC 1178962'
_chemical_formula_sum 'C6 H12 N4'
_chemical_formula_moiety
;
C6 H12 N4
;
_journal_coeditor_code "IUCr BK0011"
_journal_coden_Cambridge 621
_journal_volume 51
_journal_year 1995
_journal_page_first 489
_journal_name_full 'Acta Crystallogr.,Sect.A:Found Crystallogr. '
loop_
_publ_author_name
"S.P.Kampermann"
"T.M.Sabine"
"B.M.Craven"
"R.K.McMullan"
_chemical_name_systematic
;
Hexamethylenetetramine
;
_chemical_name_common
;
Methenamine; DrugBank: DB06799
;
_cell_volume    334.602
_exptl_special_details
;
z(H) is 0.0921 not -0.0921

;
_diffrn_ambient_temperature 80
_diffrn_radiation_probe 'neutron radiation'
#These two values have been output from a single CSD field.
_refine_ls_R_factor_gt 0.028
_refine_ls_wR_factor_gt 0.028
_symmetry_cell_setting cubic
_symmetry_space_group_name_H-M 'I -4 3 m'
_symmetry_Int_Tables_number 217
loop_
_symmetry_equiv_pos_site_id
_symmetry_equiv_pos_as_xyz
1 x,y,z
2 y,-x,-z
3 x,-y,-z
4 z,x,y
5 -x,-y,z
6 -y,-x,z
7 x,-z,-y
8 -y,x,-z
9 -x,y,-z
10 -z,-x,y
11 y,x,z
12 -x,z,-y
13 z,-x,-y
14 x,z,y
15 -z,x,-y
16 -x,-z,y
17 y,z,x
18 z,-y,-x
19 -z,-y,x
20 y,-z,-x
21 z,y,x
22 -y,z,-x
23 -y,-z,x
24 -z,y,-x
25 1/2+x,1/2+y,1/2+z
26 1/2+y,1/2-x,1/2-z
27 1/2+x,1/2-y,1/2-z
28 1/2+z,1/2+x,1/2+y
29 1/2-x,1/2-y,1/2+z
30 1/2-y,1/2-x,1/2+z
31 1/2+x,1/2-z,1/2-y
32 1/2-y,1/2+x,1/2-z
33 1/2-x,1/2+y,1/2-z
34 1/2-z,1/2-x,1/2+y
35 1/2+y,1/2+x,1/2+z
36 1/2-x,1/2+z,1/2-y
37 1/2+z,1/2-x,1/2-y
38 1/2+x,1/2+z,1/2+y
39 1/2-z,1/2+x,1/2-y
40 1/2-x,1/2-z,1/2+y
41 1/2+y,1/2+z,1/2+x
42 1/2+z,1/2-y,1/2-x
43 1/2-z,1/2-y,1/2+x
44 1/2+y,1/2-z,1/2-x
45 1/2+z,1/2+y,1/2+x
46 1/2-y,1/2+z,1/2-x
47 1/2-y,1/2-z,1/2+x
48 1/2-z,1/2+y,1/2-x
_cell_length_a 6.9424(7)
_cell_length_b 6.9424(7)
_cell_length_c 6.9424(7)
_cell_angle_alpha 90
_cell_angle_beta 90
_cell_angle_gamma 90
_cell_formula_units_Z 2
loop_
_atom_type_symbol
_atom_type_radius_bond
C 0.68
H 0.23
N 0.68
loop_
_atom_site_label
_atom_site_type_symbol
_atom_site_fract_x
_atom_site_fract_y
_atom_site_fract_z
C1 C 0.2421(1) 0.00000 0.00000
N1 N 0.1246(2) 0.1246(2) 0.1246(2)
H1 H 0.3322(4) -0.0921(3) 0.0921(3)
C1G C 0.0000(1) 0.24210 0.00000
N1G N -0.1246(2) 0.1246(2) -0.1246(2)
C1D C -0.2421(1) 0.00000 0.00000
N1D N -0.1246(2) -0.1246(2) 0.1246(2)
C1A C 0.0000(1) -0.24210 0.00000
N1A N 0.1246(2) -0.1246(2) -0.1246(2)
H1B H 0.3322(4) 0.0921(3) -0.0921(3)
C1Q C 0.0000(1) 0.00000 -0.24210
H1Q H 0.0921(4) 0.0921(3) -0.3322(3)
H1W H -0.0921(4) -0.0921(3) -0.3322(3)
H1A H -0.0921(4) -0.3322(3) -0.0921(3)
H1E H 0.0921(4) -0.3322(3) 0.0921(3)
C1V C 0.0000(1) 0.00000 0.24210
H1V H 0.0921(4) -0.0921(3) 0.3322(3)
H1P H -0.0921(4) 0.0921(3) 0.3322(3)
H1D H -0.3322(4) 0.0921(3) 0.0921(3)
H1H H -0.3322(4) -0.0921(3) -0.0921(3)
H1G H 0.0921(4) 0.3322(3) -0.0921(3)
H1J H -0.0921(4) 0.3322(3) 0.0921(3)
#END

data_CSD_CIF_HXMTAM13
_audit_creation_date 1996-04-12
_audit_creation_method CSD-ConQuest-V1
_database_code_CSD HXMTAM13
_database_code_depnum_ccdc_archive 'CCDC 1178963'
_chemical_formula_sum 'C6 H12 N4'
_chemical_formula_moiety
;
C6 H12 N4
;
_journal_coeditor_code "IUCr BK0011"
_journal_coden_Cambridge 621
_journal_volume 51
_journal_year 1995
_journal_page_first 489
_journal_name_full 'Acta Crystallogr.,Sect.A:Found Crystallogr. '
loop_
_publ_author_name
"S.P.Kampermann"
"T.M.Sabine"
"B.M.Craven"
"R.K.McMullan"
_chemical_name_systematic
;
Hexamethylenetetramine
;
_chemical_name_common
;
Methenamine; DrugBank: DB06799
;
_cell_volume    336.442
_exptl_special_details
;
z(H) is 0.0913 not -0.0913

;
_diffrn_ambient_temperature 120
_diffrn_radiation_probe 'neutron radiation'
#These two values have been output from a single CSD field.
_refine_ls_R_factor_gt 0.028
_refine_ls_wR_factor_gt 0.028
_symmetry_cell_setting cubic
_symmetry_space_group_name_H-M 'I -4 3 m'
_symmetry_Int_Tables_number 217
loop_
_symmetry_equiv_pos_site_id
_symmetry_equiv_pos_as_xyz
1 x,y,z
2 y,-x,-z
3 x,-y,-z
4 z,x,y
5 -x,-y,z
6 -y,-x,z
7 x,-z,-y
8 -y,x,-z
9 -x,y,-z
10 -z,-x,y
11 y,x,z
12 -x,z,-y
13 z,-x,-y
14 x,z,y
15 -z,x,-y
16 -x,-z,y
17 y,z,x
18 z,-y,-x
19 -z,-y,x
20 y,-z,-x
21 z,y,x
22 -y,z,-x
23 -y,-z,x
24 -z,y,-x
25 1/2+x,1/2+y,1/2+z
26 1/2+y,1/2-x,1/2-z
27 1/2+x,1/2-y,1/2-z
28 1/2+z,1/2+x,1/2+y
29 1/2-x,1/2-y,1/2+z
30 1/2-y,1/2-x,1/2+z
31 1/2+x,1/2-z,1/2-y
32 1/2-y,1/2+x,1/2-z
33 1/2-x,1/2+y,1/2-z
34 1/2-z,1/2-x,1/2+y
35 1/2+y,1/2+x,1/2+z
36 1/2-x,1/2+z,1/2-y
37 1/2+z,1/2-x,1/2-y
38 1/2+x,1/2+z,1/2+y
39 1/2-z,1/2+x,1/2-y
40 1/2-x,1/2-z,1/2+y
41 1/2+y,1/2+z,1/2+x
42 1/2+z,1/2-y,1/2-x
43 1/2-z,1/2-y,1/2+x
44 1/2+y,1/2-z,1/2-x
45 1/2+z,1/2+y,1/2+x
46 1/2-y,1/2+z,1/2-x
47 1/2-y,1/2-z,1/2+x
48 1/2-z,1/2+y,1/2-x
_cell_length_a 6.9551(7)
_cell_length_b 6.9551(7)
_cell_length_c 6.9551(7)
_cell_angle_alpha 90
_cell_angle_beta 90
_cell_angle_gamma 90
_cell_formula_units_Z 2
loop_
_atom_type_symbol
_atom_type_radius_bond
C 0.68
H 0.23
N 0.68
loop_
_atom_site_label
_atom_site_type_symbol
_atom_site_fract_x
_atom_site_fract_y
_atom_site_fract_z
C1 C 0.2414(1) 0.00000 0.00000
N1 N 0.1241(2) 0.1241(2) 0.1241(2)
H1 H 0.3315(4) -0.0913(4) 0.0913(4)
C1G C 0.0000(1) 0.24140 0.00000
N1G N -0.1241(2) 0.1241(2) -0.1241(2)
C1D C -0.2414(1) 0.00000 0.00000
N1D N -0.1241(2) -0.1241(2) 0.1241(2)
C1A C 0.0000(1) -0.24140 0.00000
N1A N 0.1241(2) -0.1241(2) -0.1241(2)
H1B H 0.3315(4) 0.0913(4) -0.0913(4)
C1Q C 0.0000(1) 0.00000 -0.24140
H1Q H 0.0913(4) 0.0913(4) -0.3315(4)
H1W H -0.0913(4) -0.0913(4) -0.3315(4)
H1A H -0.0913(4) -0.3315(4) -0.0913(4)
H1E H 0.0913(4) -0.3315(4) 0.0913(4)
C1V C 0.0000(1) 0.00000 0.24140
H1V H 0.0913(4) -0.0913(4) 0.3315(4)
H1P H -0.0913(4) 0.0913(4) 0.3315(4)
H1D H -0.3315(4) 0.0913(4) 0.0913(4)
H1H H -0.3315(4) -0.0913(4) -0.0913(4)
H1G H 0.0913(4) 0.3315(4) -0.0913(4)
H1J H -0.0913(4) 0.3315(4) 0.0913(4)
#END

data_CSD_CIF_HXMTAM14
_audit_creation_date 1996-04-12
_audit_creation_method CSD-ConQuest-V1
_database_code_CSD HXMTAM14
_database_code_depnum_ccdc_archive 'CCDC 1178964'
_chemical_formula_sum 'C6 H12 N4'
_chemical_formula_moiety
;
C6 H12 N4
;
_journal_coeditor_code "IUCr BK0011"
_journal_coden_Cambridge 621
_journal_volume 51
_journal_year 1995
_journal_page_first 489
_journal_name_full 'Acta Crystallogr.,Sect.A:Found Crystallogr. '
loop_
_publ_author_name
"S.P.Kampermann"
"T.M.Sabine"
"B.M.Craven"
"R.K.McMullan"
_chemical_name_systematic
;
Hexamethylenetetramine
;
_chemical_name_common
;
Methenamine; DrugBank: DB06799
;
_cell_volume    338.507
_exptl_special_details
;
z(H) is 0.0914 not -0.0914

;
_diffrn_ambient_temperature 160
_diffrn_radiation_probe 'neutron radiation'
#These two values have been output from a single CSD field.
_refine_ls_R_factor_gt 0.03
_refine_ls_wR_factor_gt 0.03
_symmetry_cell_setting cubic
_symmetry_space_group_name_H-M 'I -4 3 m'
_symmetry_Int_Tables_number 217
loop_
_symmetry_equiv_pos_site_id
_symmetry_equiv_pos_as_xyz
1 x,y,z
2 y,-x,-z
3 x,-y,-z
4 z,x,y
5 -x,-y,z
6 -y,-x,z
7 x,-z,-y
8 -y,x,-z
9 -x,y,-z
10 -z,-x,y
11 y,x,z
12 -x,z,-y
13 z,-x,-y
14 x,z,y
15 -z,x,-y
16 -x,-z,y
17 y,z,x
18 z,-y,-x
19 -z,-y,x
20 y,-z,-x
21 z,y,x
22 -y,z,-x
23 -y,-z,x
24 -z,y,-x
25 1/2+x,1/2+y,1/2+z
26 1/2+y,1/2-x,1/2-z
27 1/2+x,1/2-y,1/2-z
28 1/2+z,1/2+x,1/2+y
29 1/2-x,1/2-y,1/2+z
30 1/2-y,1/2-x,1/2+z
31 1/2+x,1/2-z,1/2-y
32 1/2-y,1/2+x,1/2-z
33 1/2-x,1/2+y,1/2-z
34 1/2-z,1/2-x,1/2+y
35 1/2+y,1/2+x,1/2+z
36 1/2-x,1/2+z,1/2-y
37 1/2+z,1/2-x,1/2-y
38 1/2+x,1/2+z,1/2+y
39 1/2-z,1/2+x,1/2-y
40 1/2-x,1/2-z,1/2+y
41 1/2+y,1/2+z,1/2+x
42 1/2+z,1/2-y,1/2-x
43 1/2-z,1/2-y,1/2+x
44 1/2+y,1/2-z,1/2-x
45 1/2+z,1/2+y,1/2+x
46 1/2-y,1/2+z,1/2-x
47 1/2-y,1/2-z,1/2+x
48 1/2-z,1/2+y,1/2-x
_cell_length_a 6.9693(7)
_cell_length_b 6.9693(7)
_cell_length_c 6.9693(7)
_cell_angle_alpha 90
_cell_angle_beta 90
_cell_angle_gamma 90
_cell_formula_units_Z 2
loop_
_atom_type_symbol
_atom_type_radius_bond
C 0.68
H 0.23
N 0.68
loop_
_atom_site_label
_atom_site_type_symbol
_atom_site_fract_x
_atom_site_fract_y
_atom_site_fract_z
C1 C 0.2405(1) 0.00000 0.00000
N1 N 0.1237(2) 0.1237(2) 0.1237(2)
H1 H 0.3302(5) -0.0914(4) 0.0914(4)
C1G C 0.0000(1) 0.24050 0.00000
N1G N -0.1237(2) 0.1237(2) -0.1237(2)
C1D C -0.2405(1) 0.00000 0.00000
N1D N -0.1237(2) -0.1237(2) 0.1237(2)
C1A C 0.0000(1) -0.24050 0.00000
N1A N 0.1237(2) -0.1237(2) -0.1237(2)
H1B H 0.3302(5) 0.0914(4) -0.0914(4)
C1Q C 0.0000(1) 0.00000 -0.24050
H1Q H 0.0914(5) 0.0914(4) -0.3302(4)
H1W H -0.0914(5) -0.0914(4) -0.3302(4)
H1A H -0.0914(5) -0.3302(4) -0.0914(4)
H1E H 0.0914(5) -0.3302(4) 0.0914(4)
C1V C 0.0000(1) 0.00000 0.24050
H1V H 0.0914(5) -0.0914(4) 0.3302(4)
H1P H -0.0914(5) 0.0914(4) 0.3302(4)
H1D H -0.3302(5) 0.0914(4) 0.0914(4)
H1H H -0.3302(5) -0.0914(4) -0.0914(4)
H1G H 0.0914(5) 0.3302(4) -0.0914(4)
H1J H -0.0914(5) 0.3302(4) 0.0914(4)
#END

data_CSD_CIF_HXMTAM15
_audit_creation_date 1996-04-12
_audit_creation_method CSD-ConQuest-V1
_database_code_CSD HXMTAM15
_database_code_depnum_ccdc_archive 'CCDC 1178965'
_chemical_formula_sum 'C6 H12 N4'
_chemical_formula_moiety
;
C6 H12 N4
;
_journal_coeditor_code "IUCr BK0011"
_journal_coden_Cambridge 621
_journal_volume 51
_journal_year 1995
_journal_page_first 489
_journal_name_full 'Acta Crystallogr.,Sect.A:Found Crystallogr. '
loop_
_publ_author_name
"S.P.Kampermann"
"T.M.Sabine"
"B.M.Craven"
"R.K.McMullan"
_chemical_name_systematic
;
Hexamethylenetetramine
;
_chemical_name_common
;
Methenamine; DrugBank: DB06799
;
_cell_volume    340.580
_exptl_special_details
;
z(H) is 0.0911 not -0.0911

;
_diffrn_ambient_temperature 200
_diffrn_radiation_probe 'neutron radiation'
#These two values have been output from a single CSD field.
_refine_ls_R_factor_gt 0.032
_refine_ls_wR_factor_gt 0.032
_symmetry_cell_setting cubic
_symmetry_space_group_name_H-M 'I -4 3 m'
_symmetry_Int_Tables_number 217
loop_
_symmetry_equiv_pos_site_id
_symmetry_equiv_pos_as_xyz
1 x,y,z
2 y,-x,-z
3 x,-y,-z
4 z,x,y
5 -x,-y,z
6 -y,-x,z
7 x,-z,-y
8 -y,x,-z
9 -x,y,-z
10 -z,-x,y
11 y,x,z
12 -x,z,-y
13 z,-x,-y
14 x,z,y
15 -z,x,-y
16 -x,-z,y
17 y,z,x
18 z,-y,-x
19 -z,-y,x
20 y,-z,-x
21 z,y,x
22 -y,z,-x
23 -y,-z,x
24 -z,y,-x
25 1/2+x,1/2+y,1/2+z
26 1/2+y,1/2-x,1/2-z
27 1/2+x,1/2-y,1/2-z
28 1/2+z,1/2+x,1/2+y
29 1/2-x,1/2-y,1/2+z
30 1/2-y,1/2-x,1/2+z
31 1/2+x,1/2-z,1/2-y
32 1/2-y,1/2+x,1/2-z
33 1/2-x,1/2+y,1/2-z
34 1/2-z,1/2-x,1/2+y
35 1/2+y,1/2+x,1/2+z
36 1/2-x,1/2+z,1/2-y
37 1/2+z,1/2-x,1/2-y
38 1/2+x,1/2+z,1/2+y
39 1/2-z,1/2+x,1/2-y
40 1/2-x,1/2-z,1/2+y
41 1/2+y,1/2+z,1/2+x
42 1/2+z,1/2-y,1/2-x
43 1/2-z,1/2-y,1/2+x
44 1/2+y,1/2-z,1/2-x
45 1/2+z,1/2+y,1/2+x
46 1/2-y,1/2+z,1/2-x
47 1/2-y,1/2-z,1/2+x
48 1/2-z,1/2+y,1/2-x
_cell_length_a 6.9835(7)
_cell_length_b 6.9835(7)
_cell_length_c 6.9835(7)
_cell_angle_alpha 90
_cell_angle_beta 90
_cell_angle_gamma 90
_cell_formula_units_Z 2
loop_
_atom_type_symbol
_atom_type_radius_bond
C 0.68
H 0.23
N 0.68
loop_
_atom_site_label
_atom_site_type_symbol
_atom_site_fract_x
_atom_site_fract_y
_atom_site_fract_z
C1 C 0.2399(2) 0.00000 0.00000
N1 N 0.1233(2) 0.1233(2) 0.1233(2)
H1 H 0.3290(5) -0.0911(5) 0.0911(5)
C1G C 0.0000(2) 0.23990 0.00000
N1G N -0.1233(2) 0.1233(2) -0.1233(2)
C1D C -0.2399(2) 0.00000 0.00000
N1D N -0.1233(2) -0.1233(2) 0.1233(2)
C1A C 0.0000(2) -0.23990 0.00000
N1A N 0.1233(2) -0.1233(2) -0.1233(2)
H1B H 0.3290(5) 0.0911(5) -0.0911(5)
C1Q C 0.0000(2) 0.00000 -0.23990
H1Q H 0.0911(5) 0.0911(5) -0.3290(5)
H1W H -0.0911(5) -0.0911(5) -0.3290(5)
H1A H -0.0911(5) -0.3290(5) -0.0911(5)
H1E H 0.0911(5) -0.3290(5) 0.0911(5)
C1V C 0.0000(2) 0.00000 0.23990
H1V H 0.0911(5) -0.0911(5) 0.3290(5)
H1P H -0.0911(5) 0.0911(5) 0.3290(5)
H1D H -0.3290(5) 0.0911(5) 0.0911(5)
H1H H -0.3290(5) -0.0911(5) -0.0911(5)
H1G H 0.0911(5) 0.3290(5) -0.0911(5)
H1J H -0.0911(5) 0.3290(5) 0.0911(5)
#END

data_CSD_CIF_HXMTAM16
_audit_creation_date 2010-07-26
_audit_creation_method CSD-ConQuest-V1
_database_code_CSD HXMTAM16
_database_code_depnum_ccdc_archive 'CCDC 785499'
_chemical_formula_sum 'C6 H12 N4'
_chemical_formula_moiety
;
C6 H12 N4
;
_journal_coeditor_code "IUCr A11745"
_journal_coden_Cambridge 621
_journal_volume 31
_journal_year 1975
_journal_page_first 494
_journal_name_full 'Acta Crystallogr.,Sect.A:Found Crystallogr. '
loop_
_publ_author_name
"E.D.Stevens"
"H.Hope"
_chemical_name_systematic
;
Hexamethylenetetramine
;
_chemical_name_common
;
Methenamine; DrugBank: DB06799
;
_cell_volume    347.132
_exptl_special_details
;
The authors do not include details of the space group for this cubic system, 
the space group from HXMTAM to which the authors refer has been included for 
completeness
;
_exptl_crystal_preparation 'ethanol'
_diffrn_ambient_temperature 296
_refine_special_details
;
Relativistic Hartree-Fock low-order refinement with second-cumulant 
temperature factors
;
#These two values have been output from a single CSD field.
_refine_ls_R_factor_gt 0.0286
_refine_ls_wR_factor_gt 0.0286
_symmetry_cell_setting cubic
_symmetry_space_group_name_H-M 'I -4 3 m'
_symmetry_Int_Tables_number 217
loop_
_symmetry_equiv_pos_site_id
_symmetry_equiv_pos_as_xyz
1 x,y,z
2 y,-x,-z
3 x,-y,-z
4 z,x,y
5 -x,-y,z
6 -y,-x,z
7 x,-z,-y
8 -y,x,-z
9 -x,y,-z
10 -z,-x,y
11 y,x,z
12 -x,z,-y
13 z,-x,-y
14 x,z,y
15 -z,x,-y
16 -x,-z,y
17 y,z,x
18 z,-y,-x
19 -z,-y,x
20 y,-z,-x
21 z,y,x
22 -y,z,-x
23 -y,-z,x
24 -z,y,-x
25 1/2+x,1/2+y,1/2+z
26 1/2+y,1/2-x,1/2-z
27 1/2+x,1/2-y,1/2-z
28 1/2+z,1/2+x,1/2+y
29 1/2-x,1/2-y,1/2+z
30 1/2-y,1/2-x,1/2+z
31 1/2+x,1/2-z,1/2-y
32 1/2-y,1/2+x,1/2-z
33 1/2-x,1/2+y,1/2-z
34 1/2-z,1/2-x,1/2+y
35 1/2+y,1/2+x,1/2+z
36 1/2-x,1/2+z,1/2-y
37 1/2+z,1/2-x,1/2-y
38 1/2+x,1/2+z,1/2+y
39 1/2-z,1/2+x,1/2-y
40 1/2-x,1/2-z,1/2+y
41 1/2+y,1/2+z,1/2+x
42 1/2+z,1/2-y,1/2-x
43 1/2-z,1/2-y,1/2+x
44 1/2+y,1/2-z,1/2-x
45 1/2+z,1/2+y,1/2+x
46 1/2-y,1/2+z,1/2-x
47 1/2-y,1/2-z,1/2+x
48 1/2-z,1/2+y,1/2-x
_cell_length_a 7.028(2)
_cell_length_b 7.028(2)
_cell_length_c 7.028(2)
_cell_angle_alpha 90
_cell_angle_beta 90
_cell_angle_gamma 90
_cell_formula_units_Z 2
loop_
_atom_type_symbol
_atom_type_radius_bond
C 0.68
H 0.23
N 0.68
loop_
_atom_site_label
_atom_site_type_symbol
_atom_site_fract_x
_atom_site_fract_y
_atom_site_fract_z
N1 N 0.1223(1) 0.1223(1) 0.1223(1)
C1 C 0.2382(1) 0.00000 0.00000
H1 H 0.3187(8) -0.0898(8) 0.0898(7)
N1A N 0.1223(1) -0.1223(1) -0.1223(1)
N1D N -0.1223(1) -0.1223(1) 0.1223(1)
N1G N -0.1223(1) 0.1223(1) -0.1223(1)
C1A C 0.0000(1) -0.23820 0.00000
C1P C 0.0000(1) 0.00000 0.23820
C1C C 0.0000(1) 0.23820 0.00000
C1Q C 0.0000(1) 0.00000 -0.23820
C1D C -0.2382(1) 0.00000 0.00000
H1Q H 0.0898(8) 0.0898(8) -0.3187(7)
H1S H -0.0898(8) -0.0898(8) -0.3187(7)
H1H H -0.3187(8) -0.0898(8) -0.0898(7)
H1D H -0.3187(8) 0.0898(8) 0.0898(7)
H1C H 0.0898(8) 0.3187(8) -0.0898(7)
H1J H -0.0898(8) 0.3187(8) 0.0898(7)
H1T H 0.0898(8) -0.0898(8) 0.3187(7)
H1P H -0.0898(8) 0.0898(8) 0.3187(7)
H1E H 0.0898(8) -0.3187(8) 0.0898(7)
H1A H -0.0898(8) -0.3187(8) -0.0898(7)
H1B H 0.3187(8) 0.0898(8) -0.0898(7)
#END

data_CSD_CIF_HXMTAM17
_audit_creation_date 2010-07-26
_audit_creation_method CSD-ConQuest-V1
_database_code_CSD HXMTAM17
_database_code_depnum_ccdc_archive 'CCDC 785500'
_chemical_formula_sum 'C6 H12 N4'
_chemical_formula_moiety
;
C6 H12 N4
;
_journal_coeditor_code "IUCr A11745"
_journal_coden_Cambridge 621
_journal_volume 31
_journal_year 1975
_journal_page_first 494
_journal_name_full 'Acta Crystallogr.,Sect.A:Found Crystallogr. '
loop_
_publ_author_name
"E.D.Stevens"
"H.Hope"
_chemical_name_systematic
;
Hexamethylenetetramine
;
_chemical_name_common
;
Methenamine; DrugBank: DB06799
;
_cell_volume    347.132
_exptl_special_details
;
The authors do not include details of the space group for this cubic system, 
the space group from HXMTAM to which the authors refer has been included for 
completeness
;
_exptl_crystal_preparation 'ethanol'
_diffrn_ambient_temperature 296
_refine_special_details
;
Relativistic Hartree-Fock high-order refinement with second- cumulant 
temperature factors
;
#These two values have been output from a single CSD field.
_refine_ls_R_factor_gt 0.0376
_refine_ls_wR_factor_gt 0.0376
_symmetry_cell_setting cubic
_symmetry_space_group_name_H-M 'I -4 3 m'
_symmetry_Int_Tables_number 217
loop_
_symmetry_equiv_pos_site_id
_symmetry_equiv_pos_as_xyz
1 x,y,z
2 y,-x,-z
3 x,-y,-z
4 z,x,y
5 -x,-y,z
6 -y,-x,z
7 x,-z,-y
8 -y,x,-z
9 -x,y,-z
10 -z,-x,y
11 y,x,z
12 -x,z,-y
13 z,-x,-y
14 x,z,y
15 -z,x,-y
16 -x,-z,y
17 y,z,x
18 z,-y,-x
19 -z,-y,x
20 y,-z,-x
21 z,y,x
22 -y,z,-x
23 -y,-z,x
24 -z,y,-x
25 1/2+x,1/2+y,1/2+z
26 1/2+y,1/2-x,1/2-z
27 1/2+x,1/2-y,1/2-z
28 1/2+z,1/2+x,1/2+y
29 1/2-x,1/2-y,1/2+z
30 1/2-y,1/2-x,1/2+z
31 1/2+x,1/2-z,1/2-y
32 1/2-y,1/2+x,1/2-z
33 1/2-x,1/2+y,1/2-z
34 1/2-z,1/2-x,1/2+y
35 1/2+y,1/2+x,1/2+z
36 1/2-x,1/2+z,1/2-y
37 1/2+z,1/2-x,1/2-y
38 1/2+x,1/2+z,1/2+y
39 1/2-z,1/2+x,1/2-y
40 1/2-x,1/2-z,1/2+y
41 1/2+y,1/2+z,1/2+x
42 1/2+z,1/2-y,1/2-x
43 1/2-z,1/2-y,1/2+x
44 1/2+y,1/2-z,1/2-x
45 1/2+z,1/2+y,1/2+x
46 1/2-y,1/2+z,1/2-x
47 1/2-y,1/2-z,1/2+x
48 1/2-z,1/2+y,1/2-x
_cell_length_a 7.028(2)
_cell_length_b 7.028(2)
_cell_length_c 7.028(2)
_cell_angle_alpha 90
_cell_angle_beta 90
_cell_angle_gamma 90
_cell_formula_units_Z 2
loop_
_atom_type_symbol
_atom_type_radius_bond
C 0.68
H 0.23
N 0.68
loop_
_atom_site_label
_atom_site_type_symbol
_atom_site_fract_x
_atom_site_fract_y
_atom_site_fract_z
N1 N 0.1223(1) 0.1223(1) 0.1223(1)
C1 C 0.2378(1) 0.00000 0.00000
H1 H 0.32660 -0.09090 0.09090
N1A N 0.1223(1) -0.1223(1) -0.1223(1)
N1D N -0.1223(1) -0.1223(1) 0.1223(1)
N1G N -0.1223(1) 0.1223(1) -0.1223(1)
C1A C 0.0000(1) -0.23780 0.00000
C1P C 0.0000(1) 0.00000 0.23780
C1C C 0.0000(1) 0.23780 0.00000
C1Q C 0.0000(1) 0.00000 -0.23780
C1D C -0.2378(1) 0.00000 0.00000
H1Q H 0.09090 0.09090 -0.32660
H1S H -0.09090 -0.09090 -0.32660
H1H H -0.32660 -0.09090 -0.09090
H1D H -0.32660 0.09090 0.09090
H1C H 0.09090 0.32660 -0.09090
H1J H -0.09090 0.32660 0.09090
H1T H 0.09090 -0.09090 0.32660
H1P H -0.09090 0.09090 0.32660
H1E H 0.09090 -0.32660 0.09090
H1A H -0.09090 -0.32660 -0.09090
H1B H 0.32660 0.09090 -0.09090
#END

data_CSD_CIF_HXMTAM18
_audit_creation_date 2010-07-26
_audit_creation_method CSD-ConQuest-V1
_database_code_CSD HXMTAM18
_database_code_depnum_ccdc_archive 'CCDC 785501'
_chemical_formula_sum 'C6 H12 N4'
_chemical_formula_moiety
;
C6 H12 N4
;
_journal_coeditor_code "IUCr A11745"
_journal_coden_Cambridge 621
_journal_volume 31
_journal_year 1975
_journal_page_first 494
_journal_name_full 'Acta Crystallogr.,Sect.A:Found Crystallogr. '
loop_
_publ_author_name
"E.D.Stevens"
"H.Hope"
_chemical_name_systematic
;
Hexamethylenetetramine
;
_chemical_name_common
;
Methenamine; DrugBank: DB06799
;
_cell_volume    347.132
_exptl_special_details
;
The authors do not include details of the space group for this cubic system, 
the space group from HXMTAM to which the authors refer has been included for 
completeness
;
_exptl_crystal_preparation 'ethanol'
_diffrn_ambient_temperature 296
_refine_special_details
;
Molecular optimized scattering factors low-order refinement with 
second-cumulant temperature factors
;
#These two values have been output from a single CSD field.
_refine_ls_R_factor_gt 0.0249
_refine_ls_wR_factor_gt 0.0249
_symmetry_cell_setting cubic
_symmetry_space_group_name_H-M 'I -4 3 m'
_symmetry_Int_Tables_number 217
loop_
_symmetry_equiv_pos_site_id
_symmetry_equiv_pos_as_xyz
1 x,y,z
2 y,-x,-z
3 x,-y,-z
4 z,x,y
5 -x,-y,z
6 -y,-x,z
7 x,-z,-y
8 -y,x,-z
9 -x,y,-z
10 -z,-x,y
11 y,x,z
12 -x,z,-y
13 z,-x,-y
14 x,z,y
15 -z,x,-y
16 -x,-z,y
17 y,z,x
18 z,-y,-x
19 -z,-y,x
20 y,-z,-x
21 z,y,x
22 -y,z,-x
23 -y,-z,x
24 -z,y,-x
25 1/2+x,1/2+y,1/2+z
26 1/2+y,1/2-x,1/2-z
27 1/2+x,1/2-y,1/2-z
28 1/2+z,1/2+x,1/2+y
29 1/2-x,1/2-y,1/2+z
30 1/2-y,1/2-x,1/2+z
31 1/2+x,1/2-z,1/2-y
32 1/2-y,1/2+x,1/2-z
33 1/2-x,1/2+y,1/2-z
34 1/2-z,1/2-x,1/2+y
35 1/2+y,1/2+x,1/2+z
36 1/2-x,1/2+z,1/2-y
37 1/2+z,1/2-x,1/2-y
38 1/2+x,1/2+z,1/2+y
39 1/2-z,1/2+x,1/2-y
40 1/2-x,1/2-z,1/2+y
41 1/2+y,1/2+z,1/2+x
42 1/2+z,1/2-y,1/2-x
43 1/2-z,1/2-y,1/2+x
44 1/2+y,1/2-z,1/2-x
45 1/2+z,1/2+y,1/2+x
46 1/2-y,1/2+z,1/2-x
47 1/2-y,1/2-z,1/2+x
48 1/2-z,1/2+y,1/2-x
_cell_length_a 7.028(2)
_cell_length_b 7.028(2)
_cell_length_c 7.028(2)
_cell_angle_alpha 90
_cell_angle_beta 90
_cell_angle_gamma 90
_cell_formula_units_Z 2
loop_
_atom_type_symbol
_atom_type_radius_bond
C 0.68
H 0.23
N 0.68
loop_
_atom_site_label
_atom_site_type_symbol
_atom_site_fract_x
_atom_site_fract_y
_atom_site_fract_z
N1 N 0.1221(1) 0.1221(1) 0.1221(1)
C1 C 0.2384(1) 0.00000 0.00000
H1 H 0.3215(7) -0.0905(7) 0.0905(7)
N1A N 0.1221(1) -0.1221(1) -0.1221(1)
N1D N -0.1221(1) -0.1221(1) 0.1221(1)
N1G N -0.1221(1) 0.1221(1) -0.1221(1)
C1A C 0.0000(1) -0.23840 0.00000
C1P C 0.0000(1) 0.00000 0.23840
C1C C 0.0000(1) 0.23840 0.00000
C1Q C 0.0000(1) 0.00000 -0.23840
C1D C -0.2384(1) 0.00000 0.00000
H1Q H 0.0905(7) 0.0905(7) -0.3215(7)
H1S H -0.0905(7) -0.0905(7) -0.3215(7)
H1H H -0.3215(7) -0.0905(7) -0.0905(7)
H1D H -0.3215(7) 0.0905(7) 0.0905(7)
H1C H 0.0905(7) 0.3215(7) -0.0905(7)
H1J H -0.0905(7) 0.3215(7) 0.0905(7)
H1T H 0.0905(7) -0.0905(7) 0.3215(7)
H1P H -0.0905(7) 0.0905(7) 0.3215(7)
H1E H 0.0905(7) -0.3215(7) 0.0905(7)
H1A H -0.0905(7) -0.3215(7) -0.0905(7)
H1B H 0.3215(7) 0.0905(7) -0.0905(7)
#END

data_CSD_CIF_HXMTAM19
_audit_creation_date 2010-07-26
_audit_creation_method CSD-ConQuest-V1
_database_code_CSD HXMTAM19
_database_code_depnum_ccdc_archive 'CCDC 785502'
_chemical_formula_sum 'C6 H12 N4'
_chemical_formula_moiety
;
C6 H12 N4
;
_journal_coeditor_code "IUCr A11745"
_journal_coden_Cambridge 621
_journal_volume 31
_journal_year 1975
_journal_page_first 494
_journal_name_full 'Acta Crystallogr.,Sect.A:Found Crystallogr. '
loop_
_publ_author_name
"E.D.Stevens"
"H.Hope"
_chemical_name_systematic
;
Hexamethylenetetramine
;
_chemical_name_common
;
Methenamine; DrugBank: DB06799
;
_cell_volume    347.132
_exptl_special_details
;
The authors do not include details of the space group for this cubic system, 
the space group from HXMTAM to which the authors refer has been included for 
completeness
;
_exptl_crystal_preparation 'ethanol'
_diffrn_ambient_temperature 296
_refine_special_details
;
Molecular optimized scattering factors high-order refinement with 
second-cumulant temperature factors
;
#These two values have been output from a single CSD field.
_refine_ls_R_factor_gt 0.0368
_refine_ls_wR_factor_gt 0.0368
_symmetry_cell_setting cubic
_symmetry_space_group_name_H-M 'I -4 3 m'
_symmetry_Int_Tables_number 217
loop_
_symmetry_equiv_pos_site_id
_symmetry_equiv_pos_as_xyz
1 x,y,z
2 y,-x,-z
3 x,-y,-z
4 z,x,y
5 -x,-y,z
6 -y,-x,z
7 x,-z,-y
8 -y,x,-z
9 -x,y,-z
10 -z,-x,y
11 y,x,z
12 -x,z,-y
13 z,-x,-y
14 x,z,y
15 -z,x,-y
16 -x,-z,y
17 y,z,x
18 z,-y,-x
19 -z,-y,x
20 y,-z,-x
21 z,y,x
22 -y,z,-x
23 -y,-z,x
24 -z,y,-x
25 1/2+x,1/2+y,1/2+z
26 1/2+y,1/2-x,1/2-z
27 1/2+x,1/2-y,1/2-z
28 1/2+z,1/2+x,1/2+y
29 1/2-x,1/2-y,1/2+z
30 1/2-y,1/2-x,1/2+z
31 1/2+x,1/2-z,1/2-y
32 1/2-y,1/2+x,1/2-z
33 1/2-x,1/2+y,1/2-z
34 1/2-z,1/2-x,1/2+y
35 1/2+y,1/2+x,1/2+z
36 1/2-x,1/2+z,1/2-y
37 1/2+z,1/2-x,1/2-y
38 1/2+x,1/2+z,1/2+y
39 1/2-z,1/2+x,1/2-y
40 1/2-x,1/2-z,1/2+y
41 1/2+y,1/2+z,1/2+x
42 1/2+z,1/2-y,1/2-x
43 1/2-z,1/2-y,1/2+x
44 1/2+y,1/2-z,1/2-x
45 1/2+z,1/2+y,1/2+x
46 1/2-y,1/2+z,1/2-x
47 1/2-y,1/2-z,1/2+x
48 1/2-z,1/2+y,1/2-x
_cell_length_a 7.028(2)
_cell_length_b 7.028(2)
_cell_length_c 7.028(2)
_cell_angle_alpha 90
_cell_angle_beta 90
_cell_angle_gamma 90
_cell_formula_units_Z 2
loop_
_atom_type_symbol
_atom_type_radius_bond
C 0.68
H 0.23
N 0.68
loop_
_atom_site_label
_atom_site_type_symbol
_atom_site_fract_x
_atom_site_fract_y
_atom_site_fract_z
N1 N 0.1223(1) 0.1223(1) 0.1223(1)
C1 C 0.2378(1) 0.00000 0.00000
H1 H 0.32660 -0.09090 0.09090
N1A N 0.1223(1) -0.1223(1) -0.1223(1)
N1D N -0.1223(1) -0.1223(1) 0.1223(1)
N1G N -0.1223(1) 0.1223(1) -0.1223(1)
C1A C 0.0000(1) -0.23780 0.00000
C1P C 0.0000(1) 0.00000 0.23780
C1C C 0.0000(1) 0.23780 0.00000
C1Q C 0.0000(1) 0.00000 -0.23780
C1D C -0.2378(1) 0.00000 0.00000
H1Q H 0.09090 0.09090 -0.32660
H1S H -0.09090 -0.09090 -0.32660
H1H H -0.32660 -0.09090 -0.09090
H1D H -0.32660 0.09090 0.09090
H1C H 0.09090 0.32660 -0.09090
H1J H -0.09090 0.32660 0.09090
H1T H 0.09090 -0.09090 0.32660
H1P H -0.09090 0.09090 0.32660
H1E H 0.09090 -0.32660 0.09090
H1A H -0.09090 -0.32660 -0.09090
H1B H 0.32660 0.09090 -0.09090
#END

data_CSD_CIF_HXMTAM20
_audit_creation_date 2010-07-26
_audit_creation_method CSD-ConQuest-V1
_database_code_CSD HXMTAM20
_database_code_depnum_ccdc_archive 'CCDC 785503'
_chemical_formula_sum 'C6 H12 N4'
_chemical_formula_moiety
;
C6 H12 N4
;
_journal_coeditor_code "IUCr A11745"
_journal_coden_Cambridge 621
_journal_volume 31
_journal_year 1975
_journal_page_first 494
_journal_name_full 'Acta Crystallogr.,Sect.A:Found Crystallogr. '
loop_
_publ_author_name
"E.D.Stevens"
"H.Hope"
_chemical_name_systematic
;
Hexamethylenetetramine
;
_chemical_name_common
;
Methenamine; DrugBank: DB06799
;
_cell_volume    347.132
_exptl_special_details
;
The authors do not include details of the space group for this cubic system, 
the space group from HXMTAM to which the authors refer has been included for 
completeness
;
_exptl_crystal_preparation 'ethanol'
_diffrn_ambient_temperature 296
_diffrn_radiation_probe 'neutron radiation'
_refine_special_details
;
Refinement using second-cumulant temperature factors

;
#These two values have been output from a single CSD field.
_refine_ls_R_factor_gt 0.0233
_refine_ls_wR_factor_gt 0.0233
_symmetry_cell_setting cubic
_symmetry_space_group_name_H-M 'I -4 3 m'
_symmetry_Int_Tables_number 217
loop_
_symmetry_equiv_pos_site_id
_symmetry_equiv_pos_as_xyz
1 x,y,z
2 y,-x,-z
3 x,-y,-z
4 z,x,y
5 -x,-y,z
6 -y,-x,z
7 x,-z,-y
8 -y,x,-z
9 -x,y,-z
10 -z,-x,y
11 y,x,z
12 -x,z,-y
13 z,-x,-y
14 x,z,y
15 -z,x,-y
16 -x,-z,y
17 y,z,x
18 z,-y,-x
19 -z,-y,x
20 y,-z,-x
21 z,y,x
22 -y,z,-x
23 -y,-z,x
24 -z,y,-x
25 1/2+x,1/2+y,1/2+z
26 1/2+y,1/2-x,1/2-z
27 1/2+x,1/2-y,1/2-z
28 1/2+z,1/2+x,1/2+y
29 1/2-x,1/2-y,1/2+z
30 1/2-y,1/2-x,1/2+z
31 1/2+x,1/2-z,1/2-y
32 1/2-y,1/2+x,1/2-z
33 1/2-x,1/2+y,1/2-z
34 1/2-z,1/2-x,1/2+y
35 1/2+y,1/2+x,1/2+z
36 1/2-x,1/2+z,1/2-y
37 1/2+z,1/2-x,1/2-y
38 1/2+x,1/2+z,1/2+y
39 1/2-z,1/2+x,1/2-y
40 1/2-x,1/2-z,1/2+y
41 1/2+y,1/2+z,1/2+x
42 1/2+z,1/2-y,1/2-x
43 1/2-z,1/2-y,1/2+x
44 1/2+y,1/2-z,1/2-x
45 1/2+z,1/2+y,1/2+x
46 1/2-y,1/2+z,1/2-x
47 1/2-y,1/2-z,1/2+x
48 1/2-z,1/2+y,1/2-x
_cell_length_a 7.028(2)
_cell_length_b 7.028(2)
_cell_length_c 7.028(2)
_cell_angle_alpha 90
_cell_angle_beta 90
_cell_angle_gamma 90
_cell_formula_units_Z 2
loop_
_atom_type_symbol
_atom_type_radius_bond
C 0.68
H 0.23
N 0.68
loop_
_atom_site_label
_atom_site_type_symbol
_atom_site_fract_x
_atom_site_fract_y
_atom_site_fract_z
N1 N 0.1222(2) 0.1222(2) 0.1222(2)
C1 C 0.2370(5) 0.00000 0.00000
H1 H 0.3266(6) -0.0909(6) 0.0909(7)
N1A N 0.1222(2) -0.1222(2) -0.1222(2)
N1D N -0.1222(2) -0.1222(2) 0.1222(2)
N1G N -0.1222(2) 0.1222(2) -0.1222(2)
C1A C 0.0000(5) -0.23700 0.00000
C1P C 0.0000(5) 0.00000 0.23700
C1C C 0.0000(5) 0.23700 0.00000
C1Q C 0.0000(5) 0.00000 -0.23700
C1D C -0.2370(5) 0.00000 0.00000
H1Q H 0.0909(6) 0.0909(6) -0.3266(7)
H1S H -0.0909(6) -0.0909(6) -0.3266(7)
H1H H -0.3266(6) -0.0909(6) -0.0909(7)
H1D H -0.3266(6) 0.0909(6) 0.0909(7)
H1C H 0.0909(6) 0.3266(6) -0.0909(7)
H1J H -0.0909(6) 0.3266(6) 0.0909(7)
H1T H 0.0909(6) -0.0909(6) 0.3266(7)
H1P H -0.0909(6) 0.0909(6) 0.3266(7)
H1E H 0.0909(6) -0.3266(6) 0.0909(7)
H1A H -0.0909(6) -0.3266(6) -0.0909(7)
H1B H 0.3266(6) 0.0909(6) -0.0909(7)
#END

data_CSD_CIF_HXMTAM21
_audit_creation_date 2010-07-26
_audit_creation_method CSD-ConQuest-V1
_database_code_CSD HXMTAM21
_database_code_depnum_ccdc_archive 'CCDC 785504'
_chemical_formula_sum 'C6 H12 N4'
_chemical_formula_moiety
;
C6 H12 N4
;
_journal_coeditor_code "IUCr A11745"
_journal_coden_Cambridge 621
_journal_volume 31
_journal_year 1975
_journal_page_first 494
_journal_name_full 'Acta Crystallogr.,Sect.A:Found Crystallogr. '
loop_
_publ_author_name
"E.D.Stevens"
"H.Hope"
_chemical_name_systematic
;
Hexamethylenetetramine
;
_chemical_name_common
;
Methenamine; DrugBank: DB06799
;
_cell_volume    347.132
_exptl_special_details
;
The authors do not include details of the space group for this cubic system, 
the space group from HXMTAM to which the authors refer has been included for 
completeness
;
_exptl_crystal_preparation 'ethanol'
_diffrn_ambient_temperature 296
_refine_special_details
;
Relativistic Hartree-Fock low-order refinement with third-cumulant 
temperature factors
;
#These two values have been output from a single CSD field.
_refine_ls_R_factor_gt 0.0146
_refine_ls_wR_factor_gt 0.0146
_symmetry_cell_setting cubic
_symmetry_space_group_name_H-M 'I -4 3 m'
_symmetry_Int_Tables_number 217
loop_
_symmetry_equiv_pos_site_id
_symmetry_equiv_pos_as_xyz
1 x,y,z
2 y,-x,-z
3 x,-y,-z
4 z,x,y
5 -x,-y,z
6 -y,-x,z
7 x,-z,-y
8 -y,x,-z
9 -x,y,-z
10 -z,-x,y
11 y,x,z
12 -x,z,-y
13 z,-x,-y
14 x,z,y
15 -z,x,-y
16 -x,-z,y
17 y,z,x
18 z,-y,-x
19 -z,-y,x
20 y,-z,-x
21 z,y,x
22 -y,z,-x
23 -y,-z,x
24 -z,y,-x
25 1/2+x,1/2+y,1/2+z
26 1/2+y,1/2-x,1/2-z
27 1/2+x,1/2-y,1/2-z
28 1/2+z,1/2+x,1/2+y
29 1/2-x,1/2-y,1/2+z
30 1/2-y,1/2-x,1/2+z
31 1/2+x,1/2-z,1/2-y
32 1/2-y,1/2+x,1/2-z
33 1/2-x,1/2+y,1/2-z
34 1/2-z,1/2-x,1/2+y
35 1/2+y,1/2+x,1/2+z
36 1/2-x,1/2+z,1/2-y
37 1/2+z,1/2-x,1/2-y
38 1/2+x,1/2+z,1/2+y
39 1/2-z,1/2+x,1/2-y
40 1/2-x,1/2-z,1/2+y
41 1/2+y,1/2+z,1/2+x
42 1/2+z,1/2-y,1/2-x
43 1/2-z,1/2-y,1/2+x
44 1/2+y,1/2-z,1/2-x
45 1/2+z,1/2+y,1/2+x
46 1/2-y,1/2+z,1/2-x
47 1/2-y,1/2-z,1/2+x
48 1/2-z,1/2+y,1/2-x
_cell_length_a 7.028(2)
_cell_length_b 7.028(2)
_cell_length_c 7.028(2)
_cell_angle_alpha 90
_cell_angle_beta 90
_cell_angle_gamma 90
_cell_formula_units_Z 2
loop_
_atom_type_symbol
_atom_type_radius_bond
C 0.68
H 0.23
N 0.68
loop_
_atom_site_label
_atom_site_type_symbol
_atom_site_fract_x
_atom_site_fract_y
_atom_site_fract_z
N1 N 0.1221(1) 0.1221(1) 0.1221(1)
C1 C 0.0000(2) 0.23690 0.00000
H1 H 0.0874(8) 0.3155(8) -0.0874(8)
N1G N -0.1221(1) 0.1221(1) -0.1221(1)
N1D N -0.1221(1) -0.1221(1) 0.1221(1)
N1A N 0.1221(1) -0.1221(1) -0.1221(1)
C1E C -0.2369(2) 0.00000 0.00000
C1B C 0.0000(2) -0.23690 0.00000
C1A C 0.2369(2) 0.00000 0.00000
C1C C 0.0000(2) 0.00000 0.23690
C1F C 0.0000(2) 0.00000 -0.23690
H1I H 0.0874(8) -0.0874(8) 0.3155(8)
H1C H -0.0874(8) 0.0874(8) 0.3155(8)
H1A H 0.3155(8) -0.0874(8) 0.0874(8)
H1J H 0.3155(8) 0.0874(8) -0.0874(8)
H1K H -0.0874(8) -0.0874(8) -0.3155(8)
H1F H 0.0874(8) 0.0874(8) -0.3155(8)
H1D H -0.0874(8) -0.3155(8) -0.0874(8)
H1B H 0.0874(8) -0.3155(8) 0.0874(8)
H1G H -0.3155(8) 0.0874(8) 0.0874(8)
H1E H -0.3155(8) -0.0874(8) -0.0874(8)
H1H H -0.0874(8) 0.3155(8) 0.0874(8)
#END

data_CSD_CIF_HXMTAM22
_audit_creation_date 2010-07-26
_audit_creation_method CSD-ConQuest-V1
_database_code_CSD HXMTAM22
_database_code_depnum_ccdc_archive 'CCDC 785505'
_chemical_formula_sum 'C6 H12 N4'
_chemical_formula_moiety
;
C6 H12 N4
;
_journal_coeditor_code "IUCr A11745"
_journal_coden_Cambridge 621
_journal_volume 31
_journal_year 1975
_journal_page_first 494
_journal_name_full 'Acta Crystallogr.,Sect.A:Found Crystallogr. '
loop_
_publ_author_name
"E.D.Stevens"
"H.Hope"
_chemical_name_systematic
;
Hexamethylenetetramine
;
_chemical_name_common
;
Methenamine; DrugBank: DB06799
;
_cell_volume    347.132
_exptl_special_details
;
The authors do not include details of the space group for this cubic system, 
the space group from HXMTAM to which the authors refer has been included for 
completeness
;
_exptl_crystal_preparation 'ethanol'
_diffrn_ambient_temperature 296
_refine_special_details
;
Relativistic Hartree-Fock high-order refinement with third- cumulant 
temperature factors
;
#These two values have been output from a single CSD field.
_refine_ls_R_factor_gt 0.0239
_refine_ls_wR_factor_gt 0.0239
_symmetry_cell_setting cubic
_symmetry_space_group_name_H-M 'I -4 3 m'
_symmetry_Int_Tables_number 217
loop_
_symmetry_equiv_pos_site_id
_symmetry_equiv_pos_as_xyz
1 x,y,z
2 y,-x,-z
3 x,-y,-z
4 z,x,y
5 -x,-y,z
6 -y,-x,z
7 x,-z,-y
8 -y,x,-z
9 -x,y,-z
10 -z,-x,y
11 y,x,z
12 -x,z,-y
13 z,-x,-y
14 x,z,y
15 -z,x,-y
16 -x,-z,y
17 y,z,x
18 z,-y,-x
19 -z,-y,x
20 y,-z,-x
21 z,y,x
22 -y,z,-x
23 -y,-z,x
24 -z,y,-x
25 1/2+x,1/2+y,1/2+z
26 1/2+y,1/2-x,1/2-z
27 1/2+x,1/2-y,1/2-z
28 1/2+z,1/2+x,1/2+y
29 1/2-x,1/2-y,1/2+z
30 1/2-y,1/2-x,1/2+z
31 1/2+x,1/2-z,1/2-y
32 1/2-y,1/2+x,1/2-z
33 1/2-x,1/2+y,1/2-z
34 1/2-z,1/2-x,1/2+y
35 1/2+y,1/2+x,1/2+z
36 1/2-x,1/2+z,1/2-y
37 1/2+z,1/2-x,1/2-y
38 1/2+x,1/2+z,1/2+y
39 1/2-z,1/2+x,1/2-y
40 1/2-x,1/2-z,1/2+y
41 1/2+y,1/2+z,1/2+x
42 1/2+z,1/2-y,1/2-x
43 1/2-z,1/2-y,1/2+x
44 1/2+y,1/2-z,1/2-x
45 1/2+z,1/2+y,1/2+x
46 1/2-y,1/2+z,1/2-x
47 1/2-y,1/2-z,1/2+x
48 1/2-z,1/2+y,1/2-x
_cell_length_a 7.028(2)
_cell_length_b 7.028(2)
_cell_length_c 7.028(2)
_cell_angle_alpha 90
_cell_angle_beta 90
_cell_angle_gamma 90
_cell_formula_units_Z 2
loop_
_atom_type_symbol
_atom_type_radius_bond
C 0.68
H 0.23
N 0.68
loop_
_atom_site_label
_atom_site_type_symbol
_atom_site_fract_x
_atom_site_fract_y
_atom_site_fract_z
N1 N 0.1224(2) 0.1224(2) 0.1224(2)
C1 C 0.2358(2) 0.00000 0.00000
H1 H 0.32290 0.09040 0.09040
N1A N 0.1224(2) -0.1224(2) -0.1224(2)
N1D N -0.1224(2) -0.1224(2) 0.1224(2)
N1G N -0.1224(2) 0.1224(2) -0.1224(2)
C1A C 0.0000(2) -0.23580 0.00000
C1P C 0.0000(2) 0.00000 0.23580
C1C C 0.0000(2) 0.23580 0.00000
C1Q C 0.0000(2) 0.00000 -0.23580
C1D C -0.2358(2) 0.00000 0.00000
H1U H -0.09040 0.09040 -0.32290
H1Q H 0.09040 -0.09040 -0.32290
H1H H -0.32290 0.09040 -0.09040
H1D H -0.32290 -0.09040 0.09040
H1C H 0.09040 0.32290 0.09040
H1G H -0.09040 0.32290 -0.09040
H1R H -0.09040 -0.09040 0.32290
H1P H 0.09040 0.09040 0.32290
H1A H 0.09040 -0.32290 -0.09040
H1E H -0.09040 -0.32290 0.09040
H1B H 0.32290 -0.09040 -0.09040
#END

data_CSD_CIF_HXMTAM23
_audit_creation_date 2010-07-26
_audit_creation_method CSD-ConQuest-V1
_database_code_CSD HXMTAM23
_database_code_depnum_ccdc_archive 'CCDC 785506'
_chemical_formula_sum 'C6 H12 N4'
_chemical_formula_moiety
;
C6 H12 N4
;
_journal_coeditor_code "IUCr A11745"
_journal_coden_Cambridge 621
_journal_volume 31
_journal_year 1975
_journal_page_first 494
_journal_name_full 'Acta Crystallogr.,Sect.A:Found Crystallogr. '
loop_
_publ_author_name
"E.D.Stevens"
"H.Hope"
_chemical_name_systematic
;
Hexamethylenetetramine
;
_chemical_name_common
;
Methenamine; DrugBank: DB06799
;
_cell_volume    347.132
_exptl_special_details
;
The authors do not include details of the space group for this cubic system, 
the space group from HXMTAM to which the authors refer has been included for 
completeness
;
_exptl_crystal_preparation 'ethanol'
_diffrn_ambient_temperature 296
_diffrn_radiation_probe 'neutron radiation'
_refine_special_details
;
Refinement using third-cumulant temperature factors

;
#These two values have been output from a single CSD field.
_refine_ls_R_factor_gt 0.0118
_refine_ls_wR_factor_gt 0.0118
_symmetry_cell_setting cubic
_symmetry_space_group_name_H-M 'I -4 3 m'
_symmetry_Int_Tables_number 217
loop_
_symmetry_equiv_pos_site_id
_symmetry_equiv_pos_as_xyz
1 x,y,z
2 y,-x,-z
3 x,-y,-z
4 z,x,y
5 -x,-y,z
6 -y,-x,z
7 x,-z,-y
8 -y,x,-z
9 -x,y,-z
10 -z,-x,y
11 y,x,z
12 -x,z,-y
13 z,-x,-y
14 x,z,y
15 -z,x,-y
16 -x,-z,y
17 y,z,x
18 z,-y,-x
19 -z,-y,x
20 y,-z,-x
21 z,y,x
22 -y,z,-x
23 -y,-z,x
24 -z,y,-x
25 1/2+x,1/2+y,1/2+z
26 1/2+y,1/2-x,1/2-z
27 1/2+x,1/2-y,1/2-z
28 1/2+z,1/2+x,1/2+y
29 1/2-x,1/2-y,1/2+z
30 1/2-y,1/2-x,1/2+z
31 1/2+x,1/2-z,1/2-y
32 1/2-y,1/2+x,1/2-z
33 1/2-x,1/2+y,1/2-z
34 1/2-z,1/2-x,1/2+y
35 1/2+y,1/2+x,1/2+z
36 1/2-x,1/2+z,1/2-y
37 1/2+z,1/2-x,1/2-y
38 1/2+x,1/2+z,1/2+y
39 1/2-z,1/2+x,1/2-y
40 1/2-x,1/2-z,1/2+y
41 1/2+y,1/2+z,1/2+x
42 1/2+z,1/2-y,1/2-x
43 1/2-z,1/2-y,1/2+x
44 1/2+y,1/2-z,1/2-x
45 1/2+z,1/2+y,1/2+x
46 1/2-y,1/2+z,1/2-x
47 1/2-y,1/2-z,1/2+x
48 1/2-z,1/2+y,1/2-x
_cell_length_a 7.028(2)
_cell_length_b 7.028(2)
_cell_length_c 7.028(2)
_cell_angle_alpha 90
_cell_angle_beta 90
_cell_angle_gamma 90
_cell_formula_units_Z 2
loop_
_atom_type_symbol
_atom_type_radius_bond
C 0.68
H 0.23
N 0.68
loop_
_atom_site_label
_atom_site_type_symbol
_atom_site_fract_x
_atom_site_fract_y
_atom_site_fract_z
N1 N 0.1225(4) 0.1225(4) 0.1225(4)
C1 C 0.2356(8) 0.00000 0.00000
H1 H 0.3229(8) -0.0904(8) 0.0904(12)
N1A N 0.1225(4) -0.1225(4) -0.1225(4)
N1D N -0.1225(4) -0.1225(4) 0.1225(4)
N1G N -0.1225(4) 0.1225(4) -0.1225(4)
C1A C 0.0000(8) -0.23560 0.00000
C1P C 0.0000(8) 0.00000 0.23560
C1C C 0.0000(8) 0.23560 0.00000
C1Q C 0.0000(8) 0.00000 -0.23560
C1D C -0.2356(8) 0.00000 0.00000
H1Q H 0.0904(8) 0.0904(8) -0.3229(12)
H1S H -0.0904(8) -0.0904(8) -0.3229(12)
H1H H -0.3229(8) -0.0904(8) -0.0904(12)
H1D H -0.3229(8) 0.0904(8) 0.0904(12)
H1C H 0.0904(8) 0.3229(8) -0.0904(12)
H1J H -0.0904(8) 0.3229(8) 0.0904(12)
H1T H 0.0904(8) -0.0904(8) 0.3229(12)
H1P H -0.0904(8) 0.0904(8) 0.3229(12)
H1E H 0.0904(8) -0.3229(8) 0.0904(12)
H1A H -0.0904(8) -0.3229(8) -0.0904(12)
H1B H 0.3229(8) 0.0904(8) -0.0904(12)
#END

data_CSD_CIF_HXMTAM24
_audit_creation_date 2020-11-17
_audit_creation_method CSD-ConQuest-V1
_database_code_CSD HXMTAM24
_database_code_depnum_ccdc_archive 'CCDC 2008808'
_chemical_formula_sum 'C6 D12 N4'
_chemical_formula_moiety
;
C6 D12 N4
;
_journal_coeditor_code "kc5114"
_journal_coden_Cambridge 228
_journal_volume 53
_journal_year 2020
_journal_page_first 1519
_journal_name_full 'J.Appl.Crystallogr. '
loop_
_publ_author_name
"C.J.McMonagle"
"D.R.Allan"
"M.R.Warren"
"K.V.Kamenev"
"G.F.Turner"
"S.A.Moggach"
_chemical_name_systematic
;
perdeutero-1,3,5,7-tetraazatricyclo[3.3.1.1^3,7^]decane
;
_cell_volume    345.874
_diffrn_ambient_temperature 293
#These two values have been output from a single CSD field.
_refine_ls_R_factor_gt 0.0307
_refine_ls_wR_factor_gt 0.0307
_symmetry_cell_setting cubic
_symmetry_space_group_name_H-M 'I -4 3 m'
_symmetry_Int_Tables_number 217
loop_
_symmetry_equiv_pos_site_id
_symmetry_equiv_pos_as_xyz
1 x,y,z
2 y,z,x
3 z,x,y
4 y,-x,-z
5 z,-y,-x
6 x,-z,-y
7 -x,-y,z
8 -z,x,-y
9 -x,y,-z
10 -y,-z,x
11 -z,-x,y
12 -y,x,-z
13 -z,y,-x
14 -x,z,-y
15 -y,z,-x
16 z,y,x
17 x,z,y
18 y,x,z
19 y,-z,-x
20 -y,-x,z
21 -z,-y,x
22 -x,-z,y
23 x,-y,-z
24 z,-x,-y
25 1/2+x,1/2+y,1/2+z
26 1/2+y,1/2+z,1/2+x
27 1/2+z,1/2+x,1/2+y
28 1/2+y,1/2-x,1/2-z
29 1/2+z,1/2-y,1/2-x
30 1/2+x,1/2-z,1/2-y
31 1/2-x,1/2-y,1/2+z
32 1/2-z,1/2+x,1/2-y
33 1/2-x,1/2+y,1/2-z
34 1/2-y,1/2-z,1/2+x
35 1/2-z,1/2-x,1/2+y
36 1/2-y,1/2+x,1/2-z
37 1/2-z,1/2+y,1/2-x
38 1/2-x,1/2+z,1/2-y
39 1/2-y,1/2+z,1/2-x
40 1/2+z,1/2+y,1/2+x
41 1/2+x,1/2+z,1/2+y
42 1/2+y,1/2+x,1/2+z
43 1/2+y,1/2-z,1/2-x
44 1/2-y,1/2-x,1/2+z
45 1/2-z,1/2-y,1/2+x
46 1/2-x,1/2-z,1/2+y
47 1/2+x,1/2-y,1/2-z
48 1/2+z,1/2-x,1/2-y
_cell_length_a 7.0195(1)
_cell_length_b 7.0195(1)
_cell_length_c 7.0195(1)
_cell_angle_alpha 90
_cell_angle_beta 90
_cell_angle_gamma 90
_cell_formula_units_Z 2
loop_
_atom_type_symbol
_atom_type_radius_bond
C 0.68
D 0.23
N 0.68
loop_
_atom_site_label
_atom_site_type_symbol
_atom_site_fract_x
_atom_site_fract_y
_atom_site_fract_z
N1 N 0.6224(2) 0.6224(2) 0.6224(2)
C1 C 0.7377(4) 0.50000 0.50000
D1 D 0.81914 0.57896 0.42104
D2? D 0.81914 0.57896 0.42104
C1A C 0.5000(4) 0.50000 0.73770
D1A D 0.57896 0.42104 0.81914
C1B C 0.5000(4) 0.73770 0.50000
D1B D 0.42104 0.81914 0.57896
N1C N 0.6224(2) 0.3776(2) 0.3776(2)
C1C C 0.5000(4) 0.26230 0.50000
D1C D 0.57896 0.18086 0.57896
C1D C 0.5000(4) 0.50000 0.26230
D1D D 0.42104 0.42104 0.18086
N1F N 0.3776(2) 0.3776(2) 0.6224(2)
C1F C 0.2623(4) 0.50000 0.50000
D1F D 0.18086 0.42104 0.42104
N1G N 0.3776(2) 0.6224(2) 0.3776(2)
D1G D 0.57896 0.81914 0.42104
D1H D 0.18086 0.57896 0.57896
D1I D 0.42104 0.57896 0.81914
D1L D 0.57896 0.57896 0.18086
D1P D 0.81914 0.42104 0.57896
D1S D 0.42104 0.18086 0.42104
#END

data_CSD_CIF_HXMTAM25
_audit_creation_date 2020-12-08
_audit_creation_method CSD-ConQuest-V1
_database_code_CSD HXMTAM25
_database_code_depnum_ccdc_archive 'CCDC 2008809'
_chemical_formula_sum 'C6 D12 N4'
_chemical_formula_moiety
;
C6 D12 N4
;
_journal_coeditor_code "kc5114"
_journal_coden_Cambridge 228
_journal_volume 53
_journal_year 2020
_journal_page_first 1519
_journal_name_full 'J.Appl.Crystallogr. '
loop_
_publ_author_name
"C.J.McMonagle"
"D.R.Allan"
"M.R.Warren"
"K.V.Kamenev"
"G.F.Turner"
"S.A.Moggach"
_chemical_name_systematic
;
perdeutero-hexamethylenetetramine
;
_cell_volume    345.801
_exptl_crystal_colour 'colorless'
_exptl_crystal_description 'block'
_diffrn_ambient_temperature 297
_diffrn_radiation_probe x-ray
_diffrn_source synchrotron
#These two values have been output from a single CSD field.
_refine_ls_R_factor_gt 0.0379
_refine_ls_wR_factor_gt 0.0379
_symmetry_cell_setting cubic
_symmetry_space_group_name_H-M 'I -4 3 m'
_symmetry_Int_Tables_number 217
loop_
_symmetry_equiv_pos_site_id
_symmetry_equiv_pos_as_xyz
1 x,y,z
2 1/2+x,1/2+y,1/2+z
3 y,z,x
4 1/2+y,1/2+z,1/2+x
5 z,x,y
6 1/2+z,1/2+x,1/2+y
7 y,-x,-z
8 1/2+y,1/2-x,1/2-z
9 z,-y,-x
10 1/2+z,1/2-y,1/2-x
11 x,-z,-y
12 1/2+x,1/2-z,1/2-y
13 -x,-y,z
14 1/2-x,1/2-y,1/2+z
15 -z,x,-y
16 1/2-z,1/2+x,1/2-y
17 -x,y,-z
18 1/2-x,1/2+y,1/2-z
19 -y,-z,x
20 1/2-y,1/2-z,1/2+x
21 -z,-x,y
22 1/2-z,1/2-x,1/2+y
23 -y,x,-z
24 1/2-y,1/2+x,1/2-z
25 -z,y,-x
26 1/2-z,1/2+y,1/2-x
27 -x,z,-y
28 1/2-x,1/2+z,1/2-y
29 -y,z,-x
30 1/2-y,1/2+z,1/2-x
31 z,y,x
32 1/2+z,1/2+y,1/2+x
33 x,z,y
34 1/2+x,1/2+z,1/2+y
35 y,x,z
36 1/2+y,1/2+x,1/2+z
37 y,-z,-x
38 1/2+y,1/2-z,1/2-x
39 -y,-x,z
40 1/2-y,1/2-x,1/2+z
41 -z,-y,x
42 1/2-z,1/2-y,1/2+x
43 -x,-z,y
44 1/2-x,1/2-z,1/2+y
45 x,-y,-z
46 1/2+x,1/2-y,1/2-z
47 z,-x,-y
48 1/2+z,1/2-x,1/2-y
_cell_length_a 7.0190(3)
_cell_length_b 7.0190(3)
_cell_length_c 7.0190(3)
_cell_angle_alpha 90
_cell_angle_beta 90
_cell_angle_gamma 90
_cell_formula_units_Z 2
loop_
_atom_type_symbol
_atom_type_radius_bond
C 0.68
D 0.23
N 0.68
loop_
_atom_site_label
_atom_site_type_symbol
_atom_site_fract_x
_atom_site_fract_y
_atom_site_fract_z
N1 N 0.62246(17) 0.62246(17) 0.62246(17)
C1 C 0.7382(3) 0.50000 0.50000
D1 D 0.81800 0.42020 0.57980
C1B C 0.5000(3) 0.50000 0.73820
D1B D 0.42020 0.57980 0.81800
C1D C 0.5000(3) 0.73820 0.50000
D1D D 0.57980 0.81800 0.42020
N1F N 0.62246(17) 0.37754(17) 0.37754(17)
C1F C 0.5000(3) 0.26180 0.50000
D1F D 0.42020 0.18200 0.42020
C1H C 0.5000(3) 0.50000 0.26180
D1H D 0.57980 0.57980 0.18200
N1L N 0.37754(17) 0.37754(17) 0.62246(17)
C1L C 0.2618(3) 0.50000 0.50000
D1L D 0.18200 0.57980 0.57980
N1N N 0.37754(17) 0.62246(17) 0.37754(17)
D1N D 0.42020 0.81800 0.57980
D1P D 0.18200 0.42020 0.42020
D1R D 0.57980 0.42020 0.81800
D1X D 0.42020 0.42020 0.18200
D1FA D 0.81800 0.57980 0.42020
D1LA D 0.57980 0.18200 0.57980
#END

data_CSD_CIF_HXMTAM26
_audit_creation_date 2020-12-08
_audit_creation_method CSD-ConQuest-V1
_database_code_CSD HXMTAM26
_database_code_depnum_ccdc_archive 'CCDC 2008810'
_chemical_formula_sum 'C6 D12 N4'
_chemical_formula_moiety
;
C6 D12 N4
;
_journal_coeditor_code "kc5114"
_journal_coden_Cambridge 228
_journal_volume 53
_journal_year 2020
_journal_page_first 1519
_journal_name_full 'J.Appl.Crystallogr. '
loop_
_publ_author_name
"C.J.McMonagle"
"D.R.Allan"
"M.R.Warren"
"K.V.Kamenev"
"G.F.Turner"
"S.A.Moggach"
_chemical_name_systematic
;
perdeutero-hexamethylenetetramine
;
_cell_volume    345.269
_exptl_crystal_colour 'colorless'
_exptl_crystal_description 'block'
_diffrn_ambient_temperature 297
_diffrn_ambient_pressure 10000.0
_diffrn_radiation_probe x-ray
_diffrn_source synchrotron
#These two values have been output from a single CSD field.
_refine_ls_R_factor_gt 0.0372
_refine_ls_wR_factor_gt 0.0372
_symmetry_cell_setting cubic
_symmetry_space_group_name_H-M 'I -4 3 m'
_symmetry_Int_Tables_number 217
loop_
_symmetry_equiv_pos_site_id
_symmetry_equiv_pos_as_xyz
1 x,y,z
2 1/2+x,1/2+y,1/2+z
3 y,z,x
4 1/2+y,1/2+z,1/2+x
5 z,x,y
6 1/2+z,1/2+x,1/2+y
7 y,-x,-z
8 1/2+y,1/2-x,1/2-z
9 z,-y,-x
10 1/2+z,1/2-y,1/2-x
11 x,-z,-y
12 1/2+x,1/2-z,1/2-y
13 -x,-y,z
14 1/2-x,1/2-y,1/2+z
15 -z,x,-y
16 1/2-z,1/2+x,1/2-y
17 -x,y,-z
18 1/2-x,1/2+y,1/2-z
19 -y,-z,x
20 1/2-y,1/2-z,1/2+x
21 -z,-x,y
22 1/2-z,1/2-x,1/2+y
23 -y,x,-z
24 1/2-y,1/2+x,1/2-z
25 -z,y,-x
26 1/2-z,1/2+y,1/2-x
27 -x,z,-y
28 1/2-x,1/2+z,1/2-y
29 -y,z,-x
30 1/2-y,1/2+z,1/2-x
31 z,y,x
32 1/2+z,1/2+y,1/2+x
33 x,z,y
34 1/2+x,1/2+z,1/2+y
35 y,x,z
36 1/2+y,1/2+x,1/2+z
37 y,-z,-x
38 1/2+y,1/2-z,1/2-x
39 -y,-x,z
40 1/2-y,1/2-x,1/2+z
41 -z,-y,x
42 1/2-z,1/2-y,1/2+x
43 -x,-z,y
44 1/2-x,1/2-z,1/2+y
45 x,-y,-z
46 1/2+x,1/2-y,1/2-z
47 z,-x,-y
48 1/2+z,1/2-x,1/2-y
_cell_length_a 7.0154(2)
_cell_length_b 7.0154(2)
_cell_length_c 7.0154(2)
_cell_angle_alpha 90
_cell_angle_beta 90
_cell_angle_gamma 90
_cell_formula_units_Z 2
loop_
_atom_type_symbol
_atom_type_radius_bond
C 0.68
D 0.23
N 0.68
loop_
_atom_site_label
_atom_site_type_symbol
_atom_site_fract_x
_atom_site_fract_y
_atom_site_fract_z
N1 N 0.62262(18) 0.62262(18) 0.62262(18)
C1 C 0.7380(3) 0.500000(8) 0.500000(8)
D1 D 0.81370 0.42190 0.57810
C1B C 0.5000(3) 0.500000(8) 0.738000(8)
D1B D 0.42190 0.57810 0.81370
C1D C 0.5000(3) 0.738000(8) 0.500000(8)
D1D D 0.57810 0.81370 0.42190
N1F N 0.62262(18) 0.37738(18) 0.37738(18)
C1F C 0.5000(3) 0.262000(8) 0.500000(8)
D1F D 0.42190 0.18630 0.42190
C1H C 0.5000(3) 0.500000(8) 0.262000(8)
D1H D 0.57810 0.57810 0.18630
N1L N 0.37738(18) 0.37738(18) 0.62262(18)
C1L C 0.2620(3) 0.500000(8) 0.500000(8)
D1L D 0.18630 0.57810 0.57810
N1N N 0.37738(18) 0.62262(18) 0.37738(18)
D1N D 0.42190 0.81370 0.57810
D1P D 0.18630 0.42190 0.42190
D1R D 0.57810 0.42190 0.81370
D1X D 0.42190 0.42190 0.18630
D1FA D 0.81370 0.57810 0.42190
D1LA D 0.57810 0.18630 0.57810
#END

data_CSD_CIF_HXMTAM27
_audit_creation_date 2020-12-08
_audit_creation_method CSD-ConQuest-V1
_database_code_CSD HXMTAM27
_database_code_depnum_ccdc_archive 'CCDC 2008811'
_chemical_formula_sum 'C6 D12 N4'
_chemical_formula_moiety
;
C6 D12 N4
;
_journal_coeditor_code "kc5114"
_journal_coden_Cambridge 228
_journal_volume 53
_journal_year 2020
_journal_page_first 1519
_journal_name_full 'J.Appl.Crystallogr. '
loop_
_publ_author_name
"C.J.McMonagle"
"D.R.Allan"
"M.R.Warren"
"K.V.Kamenev"
"G.F.Turner"
"S.A.Moggach"
_chemical_name_systematic
;
perdeutero-hexamethylenetetramine
;
_cell_volume    344.944
_exptl_crystal_colour 'colorless'
_exptl_crystal_description 'block'
_diffrn_ambient_temperature 297
_diffrn_ambient_pressure 20000.0
_diffrn_radiation_probe x-ray
_diffrn_source synchrotron
#These two values have been output from a single CSD field.
_refine_ls_R_factor_gt 0.0405
_refine_ls_wR_factor_gt 0.0405
_symmetry_cell_setting cubic
_symmetry_space_group_name_H-M 'I -4 3 m'
_symmetry_Int_Tables_number 217
loop_
_symmetry_equiv_pos_site_id
_symmetry_equiv_pos_as_xyz
1 x,y,z
2 1/2+x,1/2+y,1/2+z
3 y,z,x
4 1/2+y,1/2+z,1/2+x
5 z,x,y
6 1/2+z,1/2+x,1/2+y
7 y,-x,-z
8 1/2+y,1/2-x,1/2-z
9 z,-y,-x
10 1/2+z,1/2-y,1/2-x
11 x,-z,-y
12 1/2+x,1/2-z,1/2-y
13 -x,-y,z
14 1/2-x,1/2-y,1/2+z
15 -z,x,-y
16 1/2-z,1/2+x,1/2-y
17 -x,y,-z
18 1/2-x,1/2+y,1/2-z
19 -y,-z,x
20 1/2-y,1/2-z,1/2+x
21 -z,-x,y
22 1/2-z,1/2-x,1/2+y
23 -y,x,-z
24 1/2-y,1/2+x,1/2-z
25 -z,y,-x
26 1/2-z,1/2+y,1/2-x
27 -x,z,-y
28 1/2-x,1/2+z,1/2-y
29 -y,z,-x
30 1/2-y,1/2+z,1/2-x
31 z,y,x
32 1/2+z,1/2+y,1/2+x
33 x,z,y
34 1/2+x,1/2+z,1/2+y
35 y,x,z
36 1/2+y,1/2+x,1/2+z
37 y,-z,-x
38 1/2+y,1/2-z,1/2-x
39 -y,-x,z
40 1/2-y,1/2-x,1/2+z
41 -z,-y,x
42 1/2-z,1/2-y,1/2+x
43 -x,-z,y
44 1/2-x,1/2-z,1/2+y
45 x,-y,-z
46 1/2+x,1/2-y,1/2-z
47 z,-x,-y
48 1/2+z,1/2-x,1/2-y
_cell_length_a 7.0132(2)
_cell_length_b 7.0132(2)
_cell_length_c 7.0132(2)
_cell_angle_alpha 90
_cell_angle_beta 90
_cell_angle_gamma 90
_cell_formula_units_Z 2
loop_
_atom_type_symbol
_atom_type_radius_bond
C 0.68
D 0.23
N 0.68
loop_
_atom_site_label
_atom_site_type_symbol
_atom_site_fract_x
_atom_site_fract_y
_atom_site_fract_z
N1 N 0.62277(17) 0.62277(17) 0.62277(17)
C1 C 0.7383(3) 0.500000(8) 0.500000(8)
D1 D 0.81810 0.57990 0.42010
C1B C 0.5000(3) 0.500000(8) 0.738300(8)
D1B D 0.57990 0.42010 0.81810
C1D C 0.5000(3) 0.738300(8) 0.500000(8)
D1D D 0.42010 0.81810 0.57990
N1F N 0.62277(17) 0.37723(17) 0.37723(17)
C1F C 0.5000(3) 0.261700(8) 0.500000(8)
D1F D 0.57990 0.18190 0.57990
C1H C 0.5000(3) 0.500000(8) 0.261700(8)
D1H D 0.42010 0.42010 0.18190
N1L N 0.37723(17) 0.37723(17) 0.62277(17)
C1L C 0.2617(3) 0.500000(8) 0.500000(8)
D1L D 0.18190 0.42010 0.42010
N1N N 0.37723(17) 0.62277(17) 0.37723(17)
D1N D 0.57990 0.81810 0.42010
D1P D 0.18190 0.57990 0.57990
D1R D 0.42010 0.57990 0.81810
D1X D 0.57990 0.57990 0.18190
D1FA D 0.81810 0.42010 0.57990
D1LA D 0.42010 0.18190 0.42010
#END

data_CSD_CIF_HXMTAM28
_audit_creation_date 2020-12-08
_audit_creation_method CSD-ConQuest-V1
_database_code_CSD HXMTAM28
_database_code_depnum_ccdc_archive 'CCDC 2008812'
_chemical_formula_sum 'C6 D12 N4'
_chemical_formula_moiety
;
C6 D12 N4
;
_journal_coeditor_code "kc5114"
_journal_coden_Cambridge 228
_journal_volume 53
_journal_year 2020
_journal_page_first 1519
_journal_name_full 'J.Appl.Crystallogr. '
loop_
_publ_author_name
"C.J.McMonagle"
"D.R.Allan"
"M.R.Warren"
"K.V.Kamenev"
"G.F.Turner"
"S.A.Moggach"
_chemical_name_systematic
;
perdeutero-hexamethylenetetramine
;
_cell_volume    344.428
_exptl_crystal_colour 'colorless'
_exptl_crystal_description 'block'
_diffrn_ambient_temperature 297
_diffrn_ambient_pressure 30000.0
_diffrn_radiation_probe x-ray
_diffrn_source synchrotron
#These two values have been output from a single CSD field.
_refine_ls_R_factor_gt 0.0366
_refine_ls_wR_factor_gt 0.0366
_symmetry_cell_setting cubic
_symmetry_space_group_name_H-M 'I -4 3 m'
_symmetry_Int_Tables_number 217
loop_
_symmetry_equiv_pos_site_id
_symmetry_equiv_pos_as_xyz
1 x,y,z
2 1/2+x,1/2+y,1/2+z
3 y,z,x
4 1/2+y,1/2+z,1/2+x
5 z,x,y
6 1/2+z,1/2+x,1/2+y
7 y,-x,-z
8 1/2+y,1/2-x,1/2-z
9 z,-y,-x
10 1/2+z,1/2-y,1/2-x
11 x,-z,-y
12 1/2+x,1/2-z,1/2-y
13 -x,-y,z
14 1/2-x,1/2-y,1/2+z
15 -z,x,-y
16 1/2-z,1/2+x,1/2-y
17 -x,y,-z
18 1/2-x,1/2+y,1/2-z
19 -y,-z,x
20 1/2-y,1/2-z,1/2+x
21 -z,-x,y
22 1/2-z,1/2-x,1/2+y
23 -y,x,-z
24 1/2-y,1/2+x,1/2-z
25 -z,y,-x
26 1/2-z,1/2+y,1/2-x
27 -x,z,-y
28 1/2-x,1/2+z,1/2-y
29 -y,z,-x
30 1/2-y,1/2+z,1/2-x
31 z,y,x
32 1/2+z,1/2+y,1/2+x
33 x,z,y
34 1/2+x,1/2+z,1/2+y
35 y,x,z
36 1/2+y,1/2+x,1/2+z
37 y,-z,-x
38 1/2+y,1/2-z,1/2-x
39 -y,-x,z
40 1/2-y,1/2-x,1/2+z
41 -z,-y,x
42 1/2-z,1/2-y,1/2+x
43 -x,-z,y
44 1/2-x,1/2-z,1/2+y
45 x,-y,-z
46 1/2+x,1/2-y,1/2-z
47 z,-x,-y
48 1/2+z,1/2-x,1/2-y
_cell_length_a 7.0097(2)
_cell_length_b 7.0097(2)
_cell_length_c 7.0097(2)
_cell_angle_alpha 90
_cell_angle_beta 90
_cell_angle_gamma 90
_cell_formula_units_Z 2
loop_
_atom_type_symbol
_atom_type_radius_bond
C 0.68
D 0.23
N 0.68
loop_
_atom_site_label
_atom_site_type_symbol
_atom_site_fract_x
_atom_site_fract_y
_atom_site_fract_z
N1 N 0.62291(19) 0.62291(19) 0.62291(19)
C1 C 0.7381(3) 0.500000(8) 0.500000(8)
D1 D 0.81800 0.57990 0.42010
C1B C 0.5000(3) 0.500000(8) 0.738100(8)
D1B D 0.57990 0.42010 0.81800
C1D C 0.5000(3) 0.738100(8) 0.500000(8)
D1D D 0.42010 0.81800 0.57990
N1F N 0.62291(19) 0.37709(19) 0.37709(19)
C1F C 0.5000(3) 0.261900(8) 0.500000(8)
D1F D 0.57990 0.18200 0.57990
C1H C 0.5000(3) 0.500000(8) 0.261900(8)
D1H D 0.42010 0.42010 0.18200
N1L N 0.37709(19) 0.37709(19) 0.62291(19)
C1L C 0.2619(3) 0.500000(8) 0.500000(8)
D1L D 0.18200 0.42010 0.42010
N1N N 0.37709(19) 0.62291(19) 0.37709(19)
D1N D 0.57990 0.81800 0.42010
D1P D 0.18200 0.57990 0.57990
D1R D 0.42010 0.57990 0.81800
D1X D 0.57990 0.57990 0.18200
D1FA D 0.81800 0.42010 0.57990
D1LA D 0.42010 0.18200 0.42010
#END

data_CSD_CIF_HXMTAM29
_audit_creation_date 2020-12-08
_audit_creation_method CSD-ConQuest-V1
_database_code_CSD HXMTAM29
_database_code_depnum_ccdc_archive 'CCDC 2008813'
_chemical_formula_sum 'C6 D12 N4'
_chemical_formula_moiety
;
C6 D12 N4
;
_journal_coeditor_code "kc5114"
_journal_coden_Cambridge 228
_journal_volume 53
_journal_year 2020
_journal_page_first 1519
_journal_name_full 'J.Appl.Crystallogr. '
loop_
_publ_author_name
"C.J.McMonagle"
"D.R.Allan"
"M.R.Warren"
"K.V.Kamenev"
"G.F.Turner"
"S.A.Moggach"
_chemical_name_systematic
;
perdeutero-hexamethylenetetramine
;
_cell_volume    344.148
_exptl_crystal_colour 'colorless'
_exptl_crystal_description 'block'
_diffrn_ambient_temperature 297
_diffrn_ambient_pressure 40000.0
_diffrn_radiation_probe x-ray
_diffrn_source synchrotron
#These two values have been output from a single CSD field.
_refine_ls_R_factor_gt 0.0408
_refine_ls_wR_factor_gt 0.0408
_symmetry_cell_setting cubic
_symmetry_space_group_name_H-M 'I -4 3 m'
_symmetry_Int_Tables_number 217
loop_
_symmetry_equiv_pos_site_id
_symmetry_equiv_pos_as_xyz
1 x,y,z
2 1/2+x,1/2+y,1/2+z
3 y,z,x
4 1/2+y,1/2+z,1/2+x
5 z,x,y
6 1/2+z,1/2+x,1/2+y
7 y,-x,-z
8 1/2+y,1/2-x,1/2-z
9 z,-y,-x
10 1/2+z,1/2-y,1/2-x
11 x,-z,-y
12 1/2+x,1/2-z,1/2-y
13 -x,-y,z
14 1/2-x,1/2-y,1/2+z
15 -z,x,-y
16 1/2-z,1/2+x,1/2-y
17 -x,y,-z
18 1/2-x,1/2+y,1/2-z
19 -y,-z,x
20 1/2-y,1/2-z,1/2+x
21 -z,-x,y
22 1/2-z,1/2-x,1/2+y
23 -y,x,-z
24 1/2-y,1/2+x,1/2-z
25 -z,y,-x
26 1/2-z,1/2+y,1/2-x
27 -x,z,-y
28 1/2-x,1/2+z,1/2-y
29 -y,z,-x
30 1/2-y,1/2+z,1/2-x
31 z,y,x
32 1/2+z,1/2+y,1/2+x
33 x,z,y
34 1/2+x,1/2+z,1/2+y
35 y,x,z
36 1/2+y,1/2+x,1/2+z
37 y,-z,-x
38 1/2+y,1/2-z,1/2-x
39 -y,-x,z
40 1/2-y,1/2-x,1/2+z
41 -z,-y,x
42 1/2-z,1/2-y,1/2+x
43 -x,-z,y
44 1/2-x,1/2-z,1/2+y
45 x,-y,-z
46 1/2+x,1/2-y,1/2-z
47 z,-x,-y
48 1/2+z,1/2-x,1/2-y
_cell_length_a 7.0078(2)
_cell_length_b 7.0078(2)
_cell_length_c 7.0078(2)
_cell_angle_alpha 90
_cell_angle_beta 90
_cell_angle_gamma 90
_cell_formula_units_Z 2
loop_
_atom_type_symbol
_atom_type_radius_bond
C 0.68
D 0.23
N 0.68
loop_
_atom_site_label
_atom_site_type_symbol
_atom_site_fract_x
_atom_site_fract_y
_atom_site_fract_z
N1 N 0.62289(18) 0.62289(18) 0.62289(18)
C1 C 0.7385(3) 0.500000(8) 0.500000(8)
D1 D 0.81840 0.57990 0.42010
C1B C 0.5000(3) 0.500000(8) 0.738500(8)
D1B D 0.57990 0.42010 0.81840
C1D C 0.5000(3) 0.738500(8) 0.500000(8)
D1D D 0.42010 0.81840 0.57990
N1F N 0.62289(18) 0.37711(18) 0.37711(18)
C1F C 0.5000(3) 0.261500(8) 0.500000(8)
D1F D 0.57990 0.18160 0.57990
C1H C 0.5000(3) 0.500000(8) 0.261500(8)
D1H D 0.42010 0.42010 0.18160
N1L N 0.37711(18) 0.37711(18) 0.62289(18)
C1L C 0.2615(3) 0.500000(8) 0.500000(8)
D1L D 0.18160 0.42010 0.42010
N1N N 0.37711(18) 0.62289(18) 0.37711(18)
D1N D 0.57990 0.81840 0.42010
D1P D 0.18160 0.57990 0.57990
D1R D 0.42010 0.57990 0.81840
D1X D 0.57990 0.57990 0.18160
D1FA D 0.81840 0.42010 0.57990
D1LA D 0.42010 0.18160 0.42010
#END

data_CSD_CIF_HXMTAM30
_audit_creation_date 2020-12-08
_audit_creation_method CSD-ConQuest-V1
_database_code_CSD HXMTAM30
_database_code_depnum_ccdc_archive 'CCDC 2008814'
_chemical_formula_sum 'C6 D12 N4'
_chemical_formula_moiety
;
C6 D12 N4
;
_journal_coeditor_code "kc5114"
_journal_coden_Cambridge 228
_journal_volume 53
_journal_year 2020
_journal_page_first 1519
_journal_name_full 'J.Appl.Crystallogr. '
loop_
_publ_author_name
"C.J.McMonagle"
"D.R.Allan"
"M.R.Warren"
"K.V.Kamenev"
"G.F.Turner"
"S.A.Moggach"
_chemical_name_systematic
;
perdeutero-hexamethylenetetramine
;
_cell_volume    343.662
_exptl_crystal_colour 'colorless'
_exptl_crystal_description 'block'
_diffrn_ambient_temperature 297
_diffrn_ambient_pressure 50000.0
_diffrn_radiation_probe x-ray
_diffrn_source synchrotron
#These two values have been output from a single CSD field.
_refine_ls_R_factor_gt 0.0413
_refine_ls_wR_factor_gt 0.0413
_symmetry_cell_setting cubic
_symmetry_space_group_name_H-M 'I -4 3 m'
_symmetry_Int_Tables_number 217
loop_
_symmetry_equiv_pos_site_id
_symmetry_equiv_pos_as_xyz
1 x,y,z
2 1/2+x,1/2+y,1/2+z
3 y,z,x
4 1/2+y,1/2+z,1/2+x
5 z,x,y
6 1/2+z,1/2+x,1/2+y
7 y,-x,-z
8 1/2+y,1/2-x,1/2-z
9 z,-y,-x
10 1/2+z,1/2-y,1/2-x
11 x,-z,-y
12 1/2+x,1/2-z,1/2-y
13 -x,-y,z
14 1/2-x,1/2-y,1/2+z
15 -z,x,-y
16 1/2-z,1/2+x,1/2-y
17 -x,y,-z
18 1/2-x,1/2+y,1/2-z
19 -y,-z,x
20 1/2-y,1/2-z,1/2+x
21 -z,-x,y
22 1/2-z,1/2-x,1/2+y
23 -y,x,-z
24 1/2-y,1/2+x,1/2-z
25 -z,y,-x
26 1/2-z,1/2+y,1/2-x
27 -x,z,-y
28 1/2-x,1/2+z,1/2-y
29 -y,z,-x
30 1/2-y,1/2+z,1/2-x
31 z,y,x
32 1/2+z,1/2+y,1/2+x
33 x,z,y
34 1/2+x,1/2+z,1/2+y
35 y,x,z
36 1/2+y,1/2+x,1/2+z
37 y,-z,-x
38 1/2+y,1/2-z,1/2-x
39 -y,-x,z
40 1/2-y,1/2-x,1/2+z
41 -z,-y,x
42 1/2-z,1/2-y,1/2+x
43 -x,-z,y
44 1/2-x,1/2-z,1/2+y
45 x,-y,-z
46 1/2+x,1/2-y,1/2-z
47 z,-x,-y
48 1/2+z,1/2-x,1/2-y
_cell_length_a 7.0045(2)
_cell_length_b 7.0045(2)
_cell_length_c 7.0045(2)
_cell_angle_alpha 90
_cell_angle_beta 90
_cell_angle_gamma 90
_cell_formula_units_Z 2
loop_
_atom_type_symbol
_atom_type_radius_bond
C 0.68
D 0.23
N 0.68
loop_
_atom_site_label
_atom_site_type_symbol
_atom_site_fract_x
_atom_site_fract_y
_atom_site_fract_z
N1 N 0.62287(18) 0.62287(18) 0.62287(18)
C1 C 0.7384(3) 0.500000(8) 0.500000(8)
D1 D 0.81490 0.42190 0.57810
C1B C 0.5000(3) 0.500000(8) 0.738400(8)
D1B D 0.42190 0.57810 0.81490
C1D C 0.5000(3) 0.738400(8) 0.500000(8)
D1D D 0.57810 0.81490 0.42190
N1F N 0.62287(18) 0.37713(18) 0.37713(18)
C1F C 0.5000(3) 0.261600(8) 0.500000(8)
D1F D 0.42190 0.18510 0.42190
C1H C 0.5000(3) 0.500000(8) 0.261600(8)
D1H D 0.57810 0.57810 0.18510
N1L N 0.37713(18) 0.37713(18) 0.62287(18)
C1L C 0.2616(3) 0.500000(8) 0.500000(8)
D1L D 0.18510 0.57810 0.57810
N1N N 0.37713(18) 0.62287(18) 0.37713(18)
D1N D 0.42190 0.81490 0.57810
D1P D 0.18510 0.42190 0.42190
D1R D 0.57810 0.42190 0.81490
D1X D 0.42190 0.42190 0.18510
D1FA D 0.81490 0.57810 0.42190
D1LA D 0.57810 0.18510 0.57810
#END

data_CSD_CIF_HXMTAM31
_audit_creation_date 2020-12-08
_audit_creation_method CSD-ConQuest-V1
_database_code_CSD HXMTAM31
_database_code_depnum_ccdc_archive 'CCDC 2008815'
_chemical_formula_sum 'C6 D12 N4'
_chemical_formula_moiety
;
C6 D12 N4
;
_journal_coeditor_code "kc5114"
_journal_coden_Cambridge 228
_journal_volume 53
_journal_year 2020
_journal_page_first 1519
_journal_name_full 'J.Appl.Crystallogr. '
loop_
_publ_author_name
"C.J.McMonagle"
"D.R.Allan"
"M.R.Warren"
"K.V.Kamenev"
"G.F.Turner"
"S.A.Moggach"
_chemical_name_systematic
;
perdeutero-hexamethylenetetramine
;
_cell_volume    343.279
_exptl_crystal_colour 'colorless'
_exptl_crystal_description 'block'
_diffrn_ambient_temperature 297
_diffrn_ambient_pressure 60000.0
_diffrn_radiation_probe x-ray
_diffrn_source synchrotron
#These two values have been output from a single CSD field.
_refine_ls_R_factor_gt 0.0345
_refine_ls_wR_factor_gt 0.0345
_symmetry_cell_setting cubic
_symmetry_space_group_name_H-M 'I -4 3 m'
_symmetry_Int_Tables_number 217
loop_
_symmetry_equiv_pos_site_id
_symmetry_equiv_pos_as_xyz
1 x,y,z
2 1/2+x,1/2+y,1/2+z
3 y,z,x
4 1/2+y,1/2+z,1/2+x
5 z,x,y
6 1/2+z,1/2+x,1/2+y
7 y,-x,-z
8 1/2+y,1/2-x,1/2-z
9 z,-y,-x
10 1/2+z,1/2-y,1/2-x
11 x,-z,-y
12 1/2+x,1/2-z,1/2-y
13 -x,-y,z
14 1/2-x,1/2-y,1/2+z
15 -z,x,-y
16 1/2-z,1/2+x,1/2-y
17 -x,y,-z
18 1/2-x,1/2+y,1/2-z
19 -y,-z,x
20 1/2-y,1/2-z,1/2+x
21 -z,-x,y
22 1/2-z,1/2-x,1/2+y
23 -y,x,-z
24 1/2-y,1/2+x,1/2-z
25 -z,y,-x
26 1/2-z,1/2+y,1/2-x
27 -x,z,-y
28 1/2-x,1/2+z,1/2-y
29 -y,z,-x
30 1/2-y,1/2+z,1/2-x
31 z,y,x
32 1/2+z,1/2+y,1/2+x
33 x,z,y
34 1/2+x,1/2+z,1/2+y
35 y,x,z
36 1/2+y,1/2+x,1/2+z
37 y,-z,-x
38 1/2+y,1/2-z,1/2-x
39 -y,-x,z
40 1/2-y,1/2-x,1/2+z
41 -z,-y,x
42 1/2-z,1/2-y,1/2+x
43 -x,-z,y
44 1/2-x,1/2-z,1/2+y
45 x,-y,-z
46 1/2+x,1/2-y,1/2-z
47 z,-x,-y
48 1/2+z,1/2-x,1/2-y
_cell_length_a 7.0019(2)
_cell_length_b 7.0019(2)
_cell_length_c 7.0019(2)
_cell_angle_alpha 90
_cell_angle_beta 90
_cell_angle_gamma 90
_cell_formula_units_Z 2
loop_
_atom_type_symbol
_atom_type_radius_bond
C 0.68
D 0.23
N 0.68
loop_
_atom_site_label
_atom_site_type_symbol
_atom_site_fract_x
_atom_site_fract_y
_atom_site_fract_z
N1 N 0.62305(17) 0.62305(17) 0.62305(17)
C1 C 0.7385(3) 0.500000(8) 0.500000(8)
D1 D 0.81850 0.58000 0.42000
C1B C 0.5000(3) 0.500000(8) 0.738500(8)
D1B D 0.58000 0.42000 0.81850
C1D C 0.5000(3) 0.738500(8) 0.500000(8)
D1D D 0.42000 0.81850 0.58000
N1F N 0.62305(17) 0.37695(17) 0.37695(17)
C1F C 0.5000(3) 0.261500(8) 0.500000(8)
D1F D 0.58000 0.18150 0.58000
C1H C 0.5000(3) 0.500000(8) 0.261500(8)
D1H D 0.42000 0.42000 0.18150
N1L N 0.37695(17) 0.37695(17) 0.62305(17)
C1L C 0.2615(3) 0.500000(8) 0.500000(8)
D1L D 0.18150 0.42000 0.42000
N1N N 0.37695(17) 0.62305(17) 0.37695(17)
D1N D 0.58000 0.81850 0.42000
D1P D 0.18150 0.58000 0.58000
D1R D 0.42000 0.58000 0.81850
D1X D 0.58000 0.58000 0.18150
D1FA D 0.81850 0.42000 0.58000
D1LA D 0.42000 0.18150 0.42000
#END

data_CSD_CIF_HXMTAM32
_audit_creation_date 2020-12-08
_audit_creation_method CSD-ConQuest-V1
_database_code_CSD HXMTAM32
_database_code_depnum_ccdc_archive 'CCDC 2008816'
_chemical_formula_sum 'C6 D12 N4'
_chemical_formula_moiety
;
C6 D12 N4
;
_journal_coeditor_code "kc5114"
_journal_coden_Cambridge 228
_journal_volume 53
_journal_year 2020
_journal_page_first 1519
_journal_name_full 'J.Appl.Crystallogr. '
loop_
_publ_author_name
"C.J.McMonagle"
"D.R.Allan"
"M.R.Warren"
"K.V.Kamenev"
"G.F.Turner"
"S.A.Moggach"
_chemical_name_systematic
;
perdeutero-hexamethylenetetramine
;
_cell_volume    342.897
_exptl_crystal_colour 'colorless'
_exptl_crystal_description 'block'
_diffrn_ambient_temperature 297
_diffrn_ambient_pressure 70000.0
_diffrn_radiation_probe x-ray
_diffrn_source synchrotron
#These two values have been output from a single CSD field.
_refine_ls_R_factor_gt 0.0363
_refine_ls_wR_factor_gt 0.0363
_symmetry_cell_setting cubic
_symmetry_space_group_name_H-M 'I -4 3 m'
_symmetry_Int_Tables_number 217
loop_
_symmetry_equiv_pos_site_id
_symmetry_equiv_pos_as_xyz
1 x,y,z
2 1/2+x,1/2+y,1/2+z
3 y,z,x
4 1/2+y,1/2+z,1/2+x
5 z,x,y
6 1/2+z,1/2+x,1/2+y
7 y,-x,-z
8 1/2+y,1/2-x,1/2-z
9 z,-y,-x
10 1/2+z,1/2-y,1/2-x
11 x,-z,-y
12 1/2+x,1/2-z,1/2-y
13 -x,-y,z
14 1/2-x,1/2-y,1/2+z
15 -z,x,-y
16 1/2-z,1/2+x,1/2-y
17 -x,y,-z
18 1/2-x,1/2+y,1/2-z
19 -y,-z,x
20 1/2-y,1/2-z,1/2+x
21 -z,-x,y
22 1/2-z,1/2-x,1/2+y
23 -y,x,-z
24 1/2-y,1/2+x,1/2-z
25 -z,y,-x
26 1/2-z,1/2+y,1/2-x
27 -x,z,-y
28 1/2-x,1/2+z,1/2-y
29 -y,z,-x
30 1/2-y,1/2+z,1/2-x
31 z,y,x
32 1/2+z,1/2+y,1/2+x
33 x,z,y
34 1/2+x,1/2+z,1/2+y
35 y,x,z
36 1/2+y,1/2+x,1/2+z
37 y,-z,-x
38 1/2+y,1/2-z,1/2-x
39 -y,-x,z
40 1/2-y,1/2-x,1/2+z
41 -z,-y,x
42 1/2-z,1/2-y,1/2+x
43 -x,-z,y
44 1/2-x,1/2-z,1/2+y
45 x,-y,-z
46 1/2+x,1/2-y,1/2-z
47 z,-x,-y
48 1/2+z,1/2-x,1/2-y
_cell_length_a 6.9993(2)
_cell_length_b 6.9993(2)
_cell_length_c 6.9993(2)
_cell_angle_alpha 90
_cell_angle_beta 90
_cell_angle_gamma 90
_cell_formula_units_Z 2
loop_
_atom_type_symbol
_atom_type_radius_bond
C 0.68
D 0.23
N 0.68
loop_
_atom_site_label
_atom_site_type_symbol
_atom_site_fract_x
_atom_site_fract_y
_atom_site_fract_z
N1 N 0.62311(17) 0.62311(17) 0.62311(17)
C1 C 0.7387(3) 0.500000(8) 0.500000(8)
D1 D 0.81870 0.58000 0.42000
C1B C 0.5000(3) 0.500000(8) 0.738700(8)
D1B D 0.58000 0.42000 0.81870
C1D C 0.5000(3) 0.738700(8) 0.500000(8)
D1D D 0.42000 0.81870 0.58000
N1F N 0.62311(17) 0.37689(17) 0.37689(17)
C1F C 0.5000(3) 0.261300(8) 0.500000(8)
D1F D 0.58000 0.18130 0.58000
C1H C 0.5000(3) 0.500000(8) 0.261300(8)
D1H D 0.42000 0.42000 0.18130
N1L N 0.37689(17) 0.37689(17) 0.62311(17)
C1L C 0.2613(3) 0.500000(8) 0.500000(8)
D1L D 0.18130 0.42000 0.42000
N1N N 0.37689(17) 0.62311(17) 0.37689(17)
D1N D 0.58000 0.81870 0.42000
D1P D 0.18130 0.58000 0.58000
D1R D 0.42000 0.58000 0.81870
D1X D 0.58000 0.58000 0.18130
D1FA D 0.81870 0.42000 0.58000
D1LA D 0.42000 0.18130 0.42000
#END

data_CSD_CIF_HXMTAM33
_audit_creation_date 2020-12-08
_audit_creation_method CSD-ConQuest-V1
_database_code_CSD HXMTAM33
_database_code_depnum_ccdc_archive 'CCDC 2008817'
_chemical_formula_sum 'C6 D12 N4'
_chemical_formula_moiety
;
C6 D12 N4
;
_journal_coeditor_code "kc5114"
_journal_coden_Cambridge 228
_journal_volume 53
_journal_year 2020
_journal_page_first 1519
_journal_name_full 'J.Appl.Crystallogr. '
loop_
_publ_author_name
"C.J.McMonagle"
"D.R.Allan"
"M.R.Warren"
"K.V.Kamenev"
"G.F.Turner"
"S.A.Moggach"
_chemical_name_systematic
;
perdeutero-hexamethylenetetramine
;
_cell_volume    342.471
_exptl_crystal_colour 'colorless'
_exptl_crystal_description 'block'
_diffrn_ambient_temperature 297
_diffrn_ambient_pressure 80000.0
_diffrn_radiation_probe x-ray
_diffrn_source synchrotron
#These two values have been output from a single CSD field.
_refine_ls_R_factor_gt 0.0361
_refine_ls_wR_factor_gt 0.0361
_symmetry_cell_setting cubic
_symmetry_space_group_name_H-M 'I -4 3 m'
_symmetry_Int_Tables_number 217
loop_
_symmetry_equiv_pos_site_id
_symmetry_equiv_pos_as_xyz
1 x,y,z
2 1/2+x,1/2+y,1/2+z
3 y,z,x
4 1/2+y,1/2+z,1/2+x
5 z,x,y
6 1/2+z,1/2+x,1/2+y
7 y,-x,-z
8 1/2+y,1/2-x,1/2-z
9 z,-y,-x
10 1/2+z,1/2-y,1/2-x
11 x,-z,-y
12 1/2+x,1/2-z,1/2-y
13 -x,-y,z
14 1/2-x,1/2-y,1/2+z
15 -z,x,-y
16 1/2-z,1/2+x,1/2-y
17 -x,y,-z
18 1/2-x,1/2+y,1/2-z
19 -y,-z,x
20 1/2-y,1/2-z,1/2+x
21 -z,-x,y
22 1/2-z,1/2-x,1/2+y
23 -y,x,-z
24 1/2-y,1/2+x,1/2-z
25 -z,y,-x
26 1/2-z,1/2+y,1/2-x
27 -x,z,-y
28 1/2-x,1/2+z,1/2-y
29 -y,z,-x
30 1/2-y,1/2+z,1/2-x
31 z,y,x
32 1/2+z,1/2+y,1/2+x
33 x,z,y
34 1/2+x,1/2+z,1/2+y
35 y,x,z
36 1/2+y,1/2+x,1/2+z
37 y,-z,-x
38 1/2+y,1/2-z,1/2-x
39 -y,-x,z
40 1/2-y,1/2-x,1/2+z
41 -z,-y,x
42 1/2-z,1/2-y,1/2+x
43 -x,-z,y
44 1/2-x,1/2-z,1/2+y
45 x,-y,-z
46 1/2+x,1/2-y,1/2-z
47 z,-x,-y
48 1/2+z,1/2-x,1/2-y
_cell_length_a 6.9964(2)
_cell_length_b 6.9964(2)
_cell_length_c 6.9964(2)
_cell_angle_alpha 90
_cell_angle_beta 90
_cell_angle_gamma 90
_cell_formula_units_Z 2
loop_
_atom_type_symbol
_atom_type_radius_bond
C 0.68
D 0.23
N 0.68
loop_
_atom_site_label
_atom_site_type_symbol
_atom_site_fract_x
_atom_site_fract_y
_atom_site_fract_z
N1 N 0.62303(18) 0.62303(18) 0.62303(18)
C1 C 0.7387(3) 0.500000(8) 0.500000(8)
D1 D 0.81880 0.58000 0.42000
C1B C 0.5000(3) 0.500000(8) 0.738700(8)
D1B D 0.58000 0.42000 0.81880
C1D C 0.5000(3) 0.738700(8) 0.500000(8)
D1D D 0.42000 0.81880 0.58000
N1F N 0.62303(18) 0.37697(18) 0.37697(18)
C1F C 0.5000(3) 0.261300(8) 0.500000(8)
D1F D 0.58000 0.18120 0.58000
C1H C 0.5000(3) 0.500000(8) 0.261300(8)
D1H D 0.42000 0.42000 0.18120
N1L N 0.37697(18) 0.37697(18) 0.62303(18)
C1L C 0.2613(3) 0.500000(8) 0.500000(8)
D1L D 0.18120 0.42000 0.42000
N1N N 0.37697(18) 0.62303(18) 0.37697(18)
D1N D 0.58000 0.81880 0.42000
D1P D 0.18120 0.58000 0.58000
D1R D 0.42000 0.58000 0.81880
D1X D 0.58000 0.58000 0.18120
D1FA D 0.81880 0.42000 0.58000
D1LA D 0.42000 0.18120 0.42000
#END

data_CSD_CIF_HXMTAM34
_audit_creation_date 2020-12-08
_audit_creation_method CSD-ConQuest-V1
_database_code_CSD HXMTAM34
_database_code_depnum_ccdc_archive 'CCDC 2008818'
_chemical_formula_sum 'C6 D12 N4'
_chemical_formula_moiety
;
C6 D12 N4
;
_journal_coeditor_code "kc5114"
_journal_coden_Cambridge 228
_journal_volume 53
_journal_year 2020
_journal_page_first 1519
_journal_name_full 'J.Appl.Crystallogr. '
loop_
_publ_author_name
"C.J.McMonagle"
"D.R.Allan"
"M.R.Warren"
"K.V.Kamenev"
"G.F.Turner"
"S.A.Moggach"
_chemical_name_systematic
;
perdeutero-hexamethylenetetramine
;
_cell_volume    342.104
_exptl_crystal_colour 'colorless'
_exptl_crystal_description 'block'
_diffrn_ambient_temperature 297
_diffrn_ambient_pressure 90000.0
_diffrn_radiation_probe x-ray
_diffrn_source synchrotron
#These two values have been output from a single CSD field.
_refine_ls_R_factor_gt 0.0361
_refine_ls_wR_factor_gt 0.0361
_symmetry_cell_setting cubic
_symmetry_space_group_name_H-M 'I -4 3 m'
_symmetry_Int_Tables_number 217
loop_
_symmetry_equiv_pos_site_id
_symmetry_equiv_pos_as_xyz
1 x,y,z
2 1/2+x,1/2+y,1/2+z
3 y,z,x
4 1/2+y,1/2+z,1/2+x
5 z,x,y
6 1/2+z,1/2+x,1/2+y
7 y,-x,-z
8 1/2+y,1/2-x,1/2-z
9 z,-y,-x
10 1/2+z,1/2-y,1/2-x
11 x,-z,-y
12 1/2+x,1/2-z,1/2-y
13 -x,-y,z
14 1/2-x,1/2-y,1/2+z
15 -z,x,-y
16 1/2-z,1/2+x,1/2-y
17 -x,y,-z
18 1/2-x,1/2+y,1/2-z
19 -y,-z,x
20 1/2-y,1/2-z,1/2+x
21 -z,-x,y
22 1/2-z,1/2-x,1/2+y
23 -y,x,-z
24 1/2-y,1/2+x,1/2-z
25 -z,y,-x
26 1/2-z,1/2+y,1/2-x
27 -x,z,-y
28 1/2-x,1/2+z,1/2-y
29 -y,z,-x
30 1/2-y,1/2+z,1/2-x
31 z,y,x
32 1/2+z,1/2+y,1/2+x
33 x,z,y
34 1/2+x,1/2+z,1/2+y
35 y,x,z
36 1/2+y,1/2+x,1/2+z
37 y,-z,-x
38 1/2+y,1/2-z,1/2-x
39 -y,-x,z
40 1/2-y,1/2-x,1/2+z
41 -z,-y,x
42 1/2-z,1/2-y,1/2+x
43 -x,-z,y
44 1/2-x,1/2-z,1/2+y
45 x,-y,-z
46 1/2+x,1/2-y,1/2-z
47 z,-x,-y
48 1/2+z,1/2-x,1/2-y
_cell_length_a 6.9939(2)
_cell_length_b 6.9939(2)
_cell_length_c 6.9939(2)
_cell_angle_alpha 90
_cell_angle_beta 90
_cell_angle_gamma 90
_cell_formula_units_Z 2
loop_
_atom_type_symbol
_atom_type_radius_bond
C 0.68
D 0.23
N 0.68
loop_
_atom_site_label
_atom_site_type_symbol
_atom_site_fract_x
_atom_site_fract_y
_atom_site_fract_z
N1 N 0.62310(17) 0.62310(17) 0.62310(17)
C1 C 0.7389(3) 0.500000(8) 0.500000(8)
D1 D 0.81900 0.41990 0.58010
C1B C 0.5000(3) 0.500000(8) 0.738900(8)
D1B D 0.41990 0.58010 0.81900
C1D C 0.5000(3) 0.738900(8) 0.500000(8)
D1D D 0.58010 0.81900 0.41990
N1F N 0.62310(17) 0.37690(17) 0.37690(17)
C1F C 0.5000(3) 0.261100(8) 0.500000(8)
D1F D 0.41990 0.18100 0.41990
C1H C 0.5000(3) 0.500000(8) 0.261100(8)
D1H D 0.58010 0.58010 0.18100
N1L N 0.37690(17) 0.37690(17) 0.62310(17)
C1L C 0.2611(3) 0.500000(8) 0.500000(8)
D1L D 0.18100 0.58010 0.58010
N1N N 0.37690(17) 0.62310(17) 0.37690(17)
D1N D 0.41990 0.81900 0.58010
D1P D 0.18100 0.41990 0.41990
D1R D 0.58010 0.41990 0.81900
D1X D 0.41990 0.41990 0.18100
D1FA D 0.81900 0.58010 0.41990
D1LA D 0.58010 0.18100 0.58010
#END

data_CSD_CIF_HXMTAM35
_audit_creation_date 2020-12-08
_audit_creation_method CSD-ConQuest-V1
_database_code_CSD HXMTAM35
_database_code_depnum_ccdc_archive 'CCDC 2008819'
_chemical_formula_sum 'C6 D12 N4'
_chemical_formula_moiety
;
C6 D12 N4
;
_journal_coeditor_code "kc5114"
_journal_coden_Cambridge 228
_journal_volume 53
_journal_year 2020
_journal_page_first 1519
_journal_name_full 'J.Appl.Crystallogr. '
loop_
_publ_author_name
"C.J.McMonagle"
"D.R.Allan"
"M.R.Warren"
"K.V.Kamenev"
"G.F.Turner"
"S.A.Moggach"
_chemical_name_systematic
;
perdeutero-hexamethylenetetramine
;
_cell_volume    341.737
_exptl_crystal_colour 'colorless'
_exptl_crystal_description 'block'
_diffrn_ambient_temperature 297
_diffrn_ambient_pressure 100000.0
_diffrn_radiation_probe x-ray
_diffrn_source synchrotron
#These two values have been output from a single CSD field.
_refine_ls_R_factor_gt 0.0368
_refine_ls_wR_factor_gt 0.0368
_symmetry_cell_setting cubic
_symmetry_space_group_name_H-M 'I -4 3 m'
_symmetry_Int_Tables_number 217
loop_
_symmetry_equiv_pos_site_id
_symmetry_equiv_pos_as_xyz
1 x,y,z
2 1/2+x,1/2+y,1/2+z
3 y,z,x
4 1/2+y,1/2+z,1/2+x
5 z,x,y
6 1/2+z,1/2+x,1/2+y
7 y,-x,-z
8 1/2+y,1/2-x,1/2-z
9 z,-y,-x
10 1/2+z,1/2-y,1/2-x
11 x,-z,-y
12 1/2+x,1/2-z,1/2-y
13 -x,-y,z
14 1/2-x,1/2-y,1/2+z
15 -z,x,-y
16 1/2-z,1/2+x,1/2-y
17 -x,y,-z
18 1/2-x,1/2+y,1/2-z
19 -y,-z,x
20 1/2-y,1/2-z,1/2+x
21 -z,-x,y
22 1/2-z,1/2-x,1/2+y
23 -y,x,-z
24 1/2-y,1/2+x,1/2-z
25 -z,y,-x
26 1/2-z,1/2+y,1/2-x
27 -x,z,-y
28 1/2-x,1/2+z,1/2-y
29 -y,z,-x
30 1/2-y,1/2+z,1/2-x
31 z,y,x
32 1/2+z,1/2+y,1/2+x
33 x,z,y
34 1/2+x,1/2+z,1/2+y
35 y,x,z
36 1/2+y,1/2+x,1/2+z
37 y,-z,-x
38 1/2+y,1/2-z,1/2-x
39 -y,-x,z
40 1/2-y,1/2-x,1/2+z
41 -z,-y,x
42 1/2-z,1/2-y,1/2+x
43 -x,-z,y
44 1/2-x,1/2-z,1/2+y
45 x,-y,-z
46 1/2+x,1/2-y,1/2-z
47 z,-x,-y
48 1/2+z,1/2-x,1/2-y
_cell_length_a 6.9914(3)
_cell_length_b 6.9914(3)
_cell_length_c 6.9914(3)
_cell_angle_alpha 90
_cell_angle_beta 90
_cell_angle_gamma 90
_cell_formula_units_Z 2
loop_
_atom_type_symbol
_atom_type_radius_bond
C 0.68
D 0.23
N 0.68
loop_
_atom_site_label
_atom_site_type_symbol
_atom_site_fract_x
_atom_site_fract_y
_atom_site_fract_z
N1 N 0.62324(16) 0.62324(16) 0.62324(16)
C1 C 0.7391(3) 0.500000(8) 0.500000(8)
D1 D 0.81920 0.58010 0.41990
C1B C 0.5000(3) 0.500000(8) 0.739100(8)
D1B D 0.58010 0.41990 0.81920
C1D C 0.5000(3) 0.739100(8) 0.500000(8)
D1D D 0.41990 0.81920 0.58010
N1F N 0.62324(16) 0.37676(16) 0.37676(16)
C1F C 0.5000(3) 0.260900(8) 0.500000(8)
D1F D 0.58010 0.18080 0.58010
C1H C 0.5000(3) 0.500000(8) 0.260900(8)
D1H D 0.41990 0.41990 0.18080
N1L N 0.37676(16) 0.37676(16) 0.62324(16)
C1L C 0.2609(3) 0.500000(8) 0.500000(8)
D1L D 0.18080 0.41990 0.41990
N1N N 0.37676(16) 0.62324(16) 0.37676(16)
D1N D 0.58010 0.81920 0.41990
D1P D 0.18080 0.58010 0.58010
D1R D 0.41990 0.58010 0.81920
D1X D 0.58010 0.58010 0.18080
D1FA D 0.81920 0.41990 0.58010
D1LA D 0.41990 0.18080 0.41990
#END

data_CSD_CIF_HXMTAM36
_audit_creation_date 2020-12-08
_audit_creation_method CSD-ConQuest-V1
_database_code_CSD HXMTAM36
_database_code_depnum_ccdc_archive 'CCDC 2008820'
_chemical_formula_sum 'C6 D12 N4'
_chemical_formula_moiety
;
C6 D12 N4
;
_journal_coeditor_code "kc5114"
_journal_coden_Cambridge 228
_journal_volume 53
_journal_year 2020
_journal_page_first 1519
_journal_name_full 'J.Appl.Crystallogr. '
loop_
_publ_author_name
"C.J.McMonagle"
"D.R.Allan"
"M.R.Warren"
"K.V.Kamenev"
"G.F.Turner"
"S.A.Moggach"
_chemical_name_systematic
;
perdeutero-hexamethylenetetramine
;
_cell_volume    342.589
_exptl_crystal_colour 'colorless'
_exptl_crystal_description 'block'
_diffrn_ambient_temperature 297
_diffrn_ambient_pressure 80000.0
_diffrn_radiation_probe x-ray
_diffrn_source synchrotron
#These two values have been output from a single CSD field.
_refine_ls_R_factor_gt 0.0344
_refine_ls_wR_factor_gt 0.0344
_symmetry_cell_setting cubic
_symmetry_space_group_name_H-M 'I -4 3 m'
_symmetry_Int_Tables_number 217
loop_
_symmetry_equiv_pos_site_id
_symmetry_equiv_pos_as_xyz
1 x,y,z
2 1/2+x,1/2+y,1/2+z
3 y,z,x
4 1/2+y,1/2+z,1/2+x
5 z,x,y
6 1/2+z,1/2+x,1/2+y
7 y,-x,-z
8 1/2+y,1/2-x,1/2-z
9 z,-y,-x
10 1/2+z,1/2-y,1/2-x
11 x,-z,-y
12 1/2+x,1/2-z,1/2-y
13 -x,-y,z
14 1/2-x,1/2-y,1/2+z
15 -z,x,-y
16 1/2-z,1/2+x,1/2-y
17 -x,y,-z
18 1/2-x,1/2+y,1/2-z
19 -y,-z,x
20 1/2-y,1/2-z,1/2+x
21 -z,-x,y
22 1/2-z,1/2-x,1/2+y
23 -y,x,-z
24 1/2-y,1/2+x,1/2-z
25 -z,y,-x
26 1/2-z,1/2+y,1/2-x
27 -x,z,-y
28 1/2-x,1/2+z,1/2-y
29 -y,z,-x
30 1/2-y,1/2+z,1/2-x
31 z,y,x
32 1/2+z,1/2+y,1/2+x
33 x,z,y
34 1/2+x,1/2+z,1/2+y
35 y,x,z
36 1/2+y,1/2+x,1/2+z
37 y,-z,-x
38 1/2+y,1/2-z,1/2-x
39 -y,-x,z
40 1/2-y,1/2-x,1/2+z
41 -z,-y,x
42 1/2-z,1/2-y,1/2+x
43 -x,-z,y
44 1/2-x,1/2-z,1/2+y
45 x,-y,-z
46 1/2+x,1/2-y,1/2-z
47 z,-x,-y
48 1/2+z,1/2-x,1/2-y
_cell_length_a 6.9972(2)
_cell_length_b 6.9972(2)
_cell_length_c 6.9972(2)
_cell_angle_alpha 90
_cell_angle_beta 90
_cell_angle_gamma 90
_cell_formula_units_Z 2
loop_
_atom_type_symbol
_atom_type_radius_bond
C 0.68
D 0.23
N 0.68
loop_
_atom_site_label
_atom_site_type_symbol
_atom_site_fract_x
_atom_site_fract_y
_atom_site_fract_z
N1 N 0.62309(18) 0.62309(18) 0.62309(18)
C1 C 0.7388(3) 0.500000(8) 0.500000(8)
D1 D 0.81590 0.42190 0.57810
C1B C 0.5000(3) 0.500000(8) 0.738800(8)
D1B D 0.42190 0.57810 0.81590
C1D C 0.5000(3) 0.738800(8) 0.500000(8)
D1D D 0.57810 0.81590 0.42190
N1F N 0.62309(18) 0.37691(18) 0.37691(18)
C1F C 0.5000(3) 0.261200(8) 0.500000(8)
D1F D 0.42190 0.18410 0.42190
C1H C 0.5000(3) 0.500000(8) 0.261200(8)
D1H D 0.57810 0.57810 0.18410
N1L N 0.37691(18) 0.37691(18) 0.62309(18)
C1L C 0.2612(3) 0.500000(8) 0.500000(8)
D1L D 0.18410 0.57810 0.57810
N1N N 0.37691(18) 0.62309(18) 0.37691(18)
D1N D 0.42190 0.81590 0.57810
D1P D 0.18410 0.42190 0.42190
D1R D 0.57810 0.42190 0.81590
D1X D 0.42190 0.42190 0.18410
D1FA D 0.81590 0.57810 0.42190
D1LA D 0.57810 0.18410 0.57810
#END

data_CSD_CIF_HXMTAM37
_audit_creation_date 2020-12-08
_audit_creation_method CSD-ConQuest-V1
_database_code_CSD HXMTAM37
_database_code_depnum_ccdc_archive 'CCDC 2008821'
_chemical_formula_sum 'C6 D12 N4'
_chemical_formula_moiety
;
C6 D12 N4
;
_journal_coeditor_code "kc5114"
_journal_coden_Cambridge 228
_journal_volume 53
_journal_year 2020
_journal_page_first 1519
_journal_name_full 'J.Appl.Crystallogr. '
loop_
_publ_author_name
"C.J.McMonagle"
"D.R.Allan"
"M.R.Warren"
"K.V.Kamenev"
"G.F.Turner"
"S.A.Moggach"
_chemical_name_systematic
;
perdeutero-hexamethylenetetramine
;
_cell_volume    343.206
_exptl_crystal_colour 'colorless'
_exptl_crystal_description 'block'
_diffrn_ambient_temperature 297
_diffrn_ambient_pressure 60000.0
_diffrn_radiation_probe x-ray
_diffrn_source synchrotron
#These two values have been output from a single CSD field.
_refine_ls_R_factor_gt 0.0325
_refine_ls_wR_factor_gt 0.0325
_symmetry_cell_setting cubic
_symmetry_space_group_name_H-M 'I -4 3 m'
_symmetry_Int_Tables_number 217
loop_
_symmetry_equiv_pos_site_id
_symmetry_equiv_pos_as_xyz
1 x,y,z
2 1/2+x,1/2+y,1/2+z
3 y,z,x
4 1/2+y,1/2+z,1/2+x
5 z,x,y
6 1/2+z,1/2+x,1/2+y
7 y,-x,-z
8 1/2+y,1/2-x,1/2-z
9 z,-y,-x
10 1/2+z,1/2-y,1/2-x
11 x,-z,-y
12 1/2+x,1/2-z,1/2-y
13 -x,-y,z
14 1/2-x,1/2-y,1/2+z
15 -z,x,-y
16 1/2-z,1/2+x,1/2-y
17 -x,y,-z
18 1/2-x,1/2+y,1/2-z
19 -y,-z,x
20 1/2-y,1/2-z,1/2+x
21 -z,-x,y
22 1/2-z,1/2-x,1/2+y
23 -y,x,-z
24 1/2-y,1/2+x,1/2-z
25 -z,y,-x
26 1/2-z,1/2+y,1/2-x
27 -x,z,-y
28 1/2-x,1/2+z,1/2-y
29 -y,z,-x
30 1/2-y,1/2+z,1/2-x
31 z,y,x
32 1/2+z,1/2+y,1/2+x
33 x,z,y
34 1/2+x,1/2+z,1/2+y
35 y,x,z
36 1/2+y,1/2+x,1/2+z
37 y,-z,-x
38 1/2+y,1/2-z,1/2-x
39 -y,-x,z
40 1/2-y,1/2-x,1/2+z
41 -z,-y,x
42 1/2-z,1/2-y,1/2+x
43 -x,-z,y
44 1/2-x,1/2-z,1/2+y
45 x,-y,-z
46 1/2+x,1/2-y,1/2-z
47 z,-x,-y
48 1/2+z,1/2-x,1/2-y
_cell_length_a 7.0014(2)
_cell_length_b 7.0014(2)
_cell_length_c 7.0014(2)
_cell_angle_alpha 90
_cell_angle_beta 90
_cell_angle_gamma 90
_cell_formula_units_Z 2
loop_
_atom_type_symbol
_atom_type_radius_bond
C 0.68
D 0.23
N 0.68
loop_
_atom_site_label
_atom_site_type_symbol
_atom_site_fract_x
_atom_site_fract_y
_atom_site_fract_z
N1 N 0.62296(16) 0.62296(16) 0.62296(16)
C1 C 0.7386(3) 0.500000(8) 0.500000(8)
D1 D 0.81860 0.58000 0.42000
C1B C 0.5000(3) 0.500000(8) 0.738600(8)
D1B D 0.58000 0.42000 0.81860
C1D C 0.5000(3) 0.738600(8) 0.500000(8)
D1D D 0.42000 0.81860 0.58000
N1F N 0.62296(16) 0.37704(16) 0.37704(16)
C1F C 0.5000(3) 0.261400(8) 0.500000(8)
D1F D 0.58000 0.18140 0.58000
C1H C 0.5000(3) 0.500000(8) 0.261400(8)
D1H D 0.42000 0.42000 0.18140
N1L N 0.37704(16) 0.37704(16) 0.62296(16)
C1L C 0.2614(3) 0.500000(8) 0.500000(8)
D1L D 0.18140 0.42000 0.42000
N1N N 0.37704(16) 0.62296(16) 0.37704(16)
D1N D 0.58000 0.81860 0.42000
D1P D 0.18140 0.58000 0.58000
D1R D 0.42000 0.58000 0.81860
D1X D 0.58000 0.58000 0.18140
D1FA D 0.81860 0.42000 0.58000
D1LA D 0.42000 0.18140 0.42000
#END

data_CSD_CIF_HXMTAM38
_audit_creation_date 2020-12-08
_audit_creation_method CSD-ConQuest-V1
_database_code_CSD HXMTAM38
_database_code_depnum_ccdc_archive 'CCDC 2008822'
_chemical_formula_sum 'C6 D12 N4'
_chemical_formula_moiety
;
C6 D12 N4
;
_journal_coeditor_code "kc5114"
_journal_coden_Cambridge 228
_journal_volume 53
_journal_year 2020
_journal_page_first 1519
_journal_name_full 'J.Appl.Crystallogr. '
loop_
_publ_author_name
"C.J.McMonagle"
"D.R.Allan"
"M.R.Warren"
"K.V.Kamenev"
"G.F.Turner"
"S.A.Moggach"
_chemical_name_systematic
;
perdeutero-hexamethylenetetramine
;
_cell_volume    344.104
_exptl_crystal_colour 'colorless'
_exptl_crystal_description 'block'
_diffrn_ambient_temperature 297
_diffrn_ambient_pressure 40000.0
_diffrn_radiation_probe x-ray
_diffrn_source synchrotron
#These two values have been output from a single CSD field.
_refine_ls_R_factor_gt 0.0335
_refine_ls_wR_factor_gt 0.0335
_symmetry_cell_setting cubic
_symmetry_space_group_name_H-M 'I -4 3 m'
_symmetry_Int_Tables_number 217
loop_
_symmetry_equiv_pos_site_id
_symmetry_equiv_pos_as_xyz
1 x,y,z
2 1/2+x,1/2+y,1/2+z
3 y,z,x
4 1/2+y,1/2+z,1/2+x
5 z,x,y
6 1/2+z,1/2+x,1/2+y
7 y,-x,-z
8 1/2+y,1/2-x,1/2-z
9 z,-y,-x
10 1/2+z,1/2-y,1/2-x
11 x,-z,-y
12 1/2+x,1/2-z,1/2-y
13 -x,-y,z
14 1/2-x,1/2-y,1/2+z
15 -z,x,-y
16 1/2-z,1/2+x,1/2-y
17 -x,y,-z
18 1/2-x,1/2+y,1/2-z
19 -y,-z,x
20 1/2-y,1/2-z,1/2+x
21 -z,-x,y
22 1/2-z,1/2-x,1/2+y
23 -y,x,-z
24 1/2-y,1/2+x,1/2-z
25 -z,y,-x
26 1/2-z,1/2+y,1/2-x
27 -x,z,-y
28 1/2-x,1/2+z,1/2-y
29 -y,z,-x
30 1/2-y,1/2+z,1/2-x
31 z,y,x
32 1/2+z,1/2+y,1/2+x
33 x,z,y
34 1/2+x,1/2+z,1/2+y
35 y,x,z
36 1/2+y,1/2+x,1/2+z
37 y,-z,-x
38 1/2+y,1/2-z,1/2-x
39 -y,-x,z
40 1/2-y,1/2-x,1/2+z
41 -z,-y,x
42 1/2-z,1/2-y,1/2+x
43 -x,-z,y
44 1/2-x,1/2-z,1/2+y
45 x,-y,-z
46 1/2+x,1/2-y,1/2-z
47 z,-x,-y
48 1/2+z,1/2-x,1/2-y
_cell_length_a 7.0075(2)
_cell_length_b 7.0075(2)
_cell_length_c 7.0075(2)
_cell_angle_alpha 90
_cell_angle_beta 90
_cell_angle_gamma 90
_cell_formula_units_Z 2
loop_
_atom_type_symbol
_atom_type_radius_bond
C 0.68
D 0.23
N 0.68
loop_
_atom_site_label
_atom_site_type_symbol
_atom_site_fract_x
_atom_site_fract_y
_atom_site_fract_z
N1 N 0.62285(19) 0.62285(19) 0.62285(19)
C1 C 0.7383(3) 0.500000(8) 0.500000(8)
D1 D 0.81820 0.57990 0.42010
C1B C 0.5000(3) 0.500000(8) 0.738300(8)
D1B D 0.57990 0.42010 0.81820
C1D C 0.5000(3) 0.738300(8) 0.500000(8)
D1D D 0.42010 0.81820 0.57990
N1F N 0.62285(19) 0.37715(19) 0.37715(19)
C1F C 0.5000(3) 0.261700(8) 0.500000(8)
D1F D 0.57990 0.18180 0.57990
C1H C 0.5000(3) 0.500000(8) 0.261700(8)
D1H D 0.42010 0.42010 0.18180
N1L N 0.37715(19) 0.37715(19) 0.62285(19)
C1L C 0.2617(3) 0.500000(8) 0.500000(8)
D1L D 0.18180 0.42010 0.42010
N1N N 0.37715(19) 0.62285(19) 0.37715(19)
D1N D 0.57990 0.81820 0.42010
D1P D 0.18180 0.57990 0.57990
D1R D 0.42010 0.57990 0.81820
D1X D 0.57990 0.57990 0.18180
D1FA D 0.81820 0.42010 0.57990
D1LA D 0.42010 0.18180 0.42010
#END

data_CSD_CIF_HXMTAM39
_audit_creation_date 2020-12-08
_audit_creation_method CSD-ConQuest-V1
_database_code_CSD HXMTAM39
_database_code_depnum_ccdc_archive 'CCDC 2008823'
_chemical_formula_sum 'C6 D12 N4'
_chemical_formula_moiety
;
C6 D12 N4
;
_journal_coeditor_code "kc5114"
_journal_coden_Cambridge 228
_journal_volume 53
_journal_year 2020
_journal_page_first 1519
_journal_name_full 'J.Appl.Crystallogr. '
loop_
_publ_author_name
"C.J.McMonagle"
"D.R.Allan"
"M.R.Warren"
"K.V.Kamenev"
"G.F.Turner"
"S.A.Moggach"
_chemical_name_systematic
;
perdeutero-hexamethylenetetramine
;
_cell_volume    344.988
_exptl_crystal_colour 'colorless'
_exptl_crystal_description 'block'
_diffrn_ambient_temperature 297
_diffrn_ambient_pressure 20000.0
_diffrn_radiation_probe x-ray
_diffrn_source synchrotron
#These two values have been output from a single CSD field.
_refine_ls_R_factor_gt 0.0345
_refine_ls_wR_factor_gt 0.0345
_symmetry_cell_setting cubic
_symmetry_space_group_name_H-M 'I -4 3 m'
_symmetry_Int_Tables_number 217
loop_
_symmetry_equiv_pos_site_id
_symmetry_equiv_pos_as_xyz
1 x,y,z
2 1/2+x,1/2+y,1/2+z
3 y,z,x
4 1/2+y,1/2+z,1/2+x
5 z,x,y
6 1/2+z,1/2+x,1/2+y
7 y,-x,-z
8 1/2+y,1/2-x,1/2-z
9 z,-y,-x
10 1/2+z,1/2-y,1/2-x
11 x,-z,-y
12 1/2+x,1/2-z,1/2-y
13 -x,-y,z
14 1/2-x,1/2-y,1/2+z
15 -z,x,-y
16 1/2-z,1/2+x,1/2-y
17 -x,y,-z
18 1/2-x,1/2+y,1/2-z
19 -y,-z,x
20 1/2-y,1/2-z,1/2+x
21 -z,-x,y
22 1/2-z,1/2-x,1/2+y
23 -y,x,-z
24 1/2-y,1/2+x,1/2-z
25 -z,y,-x
26 1/2-z,1/2+y,1/2-x
27 -x,z,-y
28 1/2-x,1/2+z,1/2-y
29 -y,z,-x
30 1/2-y,1/2+z,1/2-x
31 z,y,x
32 1/2+z,1/2+y,1/2+x
33 x,z,y
34 1/2+x,1/2+z,1/2+y
35 y,x,z
36 1/2+y,1/2+x,1/2+z
37 y,-z,-x
38 1/2+y,1/2-z,1/2-x
39 -y,-x,z
40 1/2-y,1/2-x,1/2+z
41 -z,-y,x
42 1/2-z,1/2-y,1/2+x
43 -x,-z,y
44 1/2-x,1/2-z,1/2+y
45 x,-y,-z
46 1/2+x,1/2-y,1/2-z
47 z,-x,-y
48 1/2+z,1/2-x,1/2-y
_cell_length_a 7.0135(2)
_cell_length_b 7.0135(2)
_cell_length_c 7.0135(2)
_cell_angle_alpha 90
_cell_angle_beta 90
_cell_angle_gamma 90
_cell_formula_units_Z 2
loop_
_atom_type_symbol
_atom_type_radius_bond
C 0.68
D 0.23
N 0.68
loop_
_atom_site_label
_atom_site_type_symbol
_atom_site_fract_x
_atom_site_fract_y
_atom_site_fract_z
N1 N 0.62268(19) 0.62268(19) 0.62268(19)
C1 C 0.7380(3) 0.500000(8) 0.500000(8)
D1 D 0.81640 0.42190 0.57810
C1B C 0.5000(3) 0.500000(8) 0.738000(8)
D1B D 0.42190 0.57810 0.81640
C1D C 0.5000(3) 0.738000(8) 0.500000(8)
D1D D 0.57810 0.81640 0.42190
N1F N 0.62268(19) 0.37732(19) 0.37732(19)
C1F C 0.5000(3) 0.262000(8) 0.500000(8)
D1F D 0.42190 0.18360 0.42190
C1H C 0.5000(3) 0.500000(8) 0.262000(8)
D1H D 0.57810 0.57810 0.18360
N1L N 0.37732(19) 0.37732(19) 0.62268(19)
C1L C 0.2620(3) 0.500000(8) 0.500000(8)
D1L D 0.18360 0.57810 0.57810
N1N N 0.37732(19) 0.62268(19) 0.37732(19)
D1N D 0.42190 0.81640 0.57810
D1P D 0.18360 0.42190 0.42190
D1R D 0.57810 0.42190 0.81640
D1X D 0.42190 0.42190 0.18360
D1FA D 0.81640 0.57810 0.42190
D1LA D 0.57810 0.18360 0.57810
#END

data_CSD_CIF_HXMTAM40
_audit_creation_date 2020-12-08
_audit_creation_method CSD-ConQuest-V1
_database_code_CSD HXMTAM40
_database_code_depnum_ccdc_archive 'CCDC 2008824'
_chemical_formula_sum 'C6 D12 N4'
_chemical_formula_moiety
;
C6 D12 N4
;
_journal_coeditor_code "kc5114"
_journal_coden_Cambridge 228
_journal_volume 53
_journal_year 2020
_journal_page_first 1519
_journal_name_full 'J.Appl.Crystallogr. '
loop_
_publ_author_name
"C.J.McMonagle"
"D.R.Allan"
"M.R.Warren"
"K.V.Kamenev"
"G.F.Turner"
"S.A.Moggach"
_chemical_name_systematic
;
perdeutero-hexamethylenetetramine
;
_cell_volume    345.756
_exptl_crystal_colour 'colorless'
_exptl_crystal_description 'block'
_diffrn_ambient_temperature 297
_diffrn_radiation_probe x-ray
_diffrn_source synchrotron
#These two values have been output from a single CSD field.
_refine_ls_R_factor_gt 0.0339
_refine_ls_wR_factor_gt 0.0339
_symmetry_cell_setting cubic
_symmetry_space_group_name_H-M 'I -4 3 m'
_symmetry_Int_Tables_number 217
loop_
_symmetry_equiv_pos_site_id
_symmetry_equiv_pos_as_xyz
1 x,y,z
2 1/2+x,1/2+y,1/2+z
3 y,z,x
4 1/2+y,1/2+z,1/2+x
5 z,x,y
6 1/2+z,1/2+x,1/2+y
7 y,-x,-z
8 1/2+y,1/2-x,1/2-z
9 z,-y,-x
10 1/2+z,1/2-y,1/2-x
11 x,-z,-y
12 1/2+x,1/2-z,1/2-y
13 -x,-y,z
14 1/2-x,1/2-y,1/2+z
15 -z,x,-y
16 1/2-z,1/2+x,1/2-y
17 -x,y,-z
18 1/2-x,1/2+y,1/2-z
19 -y,-z,x
20 1/2-y,1/2-z,1/2+x
21 -z,-x,y
22 1/2-z,1/2-x,1/2+y
23 -y,x,-z
24 1/2-y,1/2+x,1/2-z
25 -z,y,-x
26 1/2-z,1/2+y,1/2-x
27 -x,z,-y
28 1/2-x,1/2+z,1/2-y
29 -y,z,-x
30 1/2-y,1/2+z,1/2-x
31 z,y,x
32 1/2+z,1/2+y,1/2+x
33 x,z,y
34 1/2+x,1/2+z,1/2+y
35 y,x,z
36 1/2+y,1/2+x,1/2+z
37 y,-z,-x
38 1/2+y,1/2-z,1/2-x
39 -y,-x,z
40 1/2-y,1/2-x,1/2+z
41 -z,-y,x
42 1/2-z,1/2-y,1/2+x
43 -x,-z,y
44 1/2-x,1/2-z,1/2+y
45 x,-y,-z
46 1/2+x,1/2-y,1/2-z
47 z,-x,-y
48 1/2+z,1/2-x,1/2-y
_cell_length_a 7.0187(3)
_cell_length_b 7.0187(3)
_cell_length_c 7.0187(3)
_cell_angle_alpha 90
_cell_angle_beta 90
_cell_angle_gamma 90
_cell_formula_units_Z 2
loop_
_atom_type_symbol
_atom_type_radius_bond
C 0.68
D 0.23
N 0.68
loop_
_atom_site_label
_atom_site_type_symbol
_atom_site_fract_x
_atom_site_fract_y
_atom_site_fract_z
N1 N 0.62261(17) 0.62261(17) 0.62261(17)
C1 C 0.7380(3) 0.500000(8) 0.500000(8)
D1 D 0.81780 0.57980 0.42020
C1B C 0.5000(3) 0.500000(8) 0.738000(8)
D1B D 0.57980 0.42020 0.81780
C1D C 0.5000(3) 0.738000(8) 0.500000(8)
D1D D 0.42020 0.81780 0.57980
N1F N 0.62261(17) 0.37739(17) 0.37739(17)
C1F C 0.5000(3) 0.262000(8) 0.500000(8)
D1F D 0.57980 0.18220 0.57980
C1H C 0.5000(3) 0.500000(8) 0.262000(8)
D1H D 0.42020 0.42020 0.18220
N1L N 0.37739(17) 0.37739(17) 0.62261(17)
C1L C 0.2620(3) 0.500000(8) 0.500000(8)
D1L D 0.18220 0.42020 0.42020
N1N N 0.37739(17) 0.62261(17) 0.37739(17)
D1N D 0.57980 0.81780 0.42020
D1P D 0.18220 0.57980 0.57980
D1R D 0.42020 0.57980 0.81780
D1X D 0.57980 0.57980 0.18220
D1FA D 0.81780 0.42020 0.57980
D1LA D 0.42020 0.18220 0.42020
#END

data_CSD_CIF_HXMTAM41
_audit_creation_date 2020-12-08
_audit_creation_method CSD-ConQuest-V1
_database_code_CSD HXMTAM41
_database_code_depnum_ccdc_archive 'CCDC 2008825'
_chemical_formula_sum 'C6 D12 N4'
_chemical_formula_moiety
;
C6 D12 N4
;
_journal_coeditor_code "kc5114"
_journal_coden_Cambridge 228
_journal_volume 53
_journal_year 2020
_journal_page_first 1519
_journal_name_full 'J.Appl.Crystallogr. '
loop_
_publ_author_name
"C.J.McMonagle"
"D.R.Allan"
"M.R.Warren"
"K.V.Kamenev"
"G.F.Turner"
"S.A.Moggach"
_chemical_name_systematic
;
perdeutero-hexamethylenetetramine
;
_cell_volume    345.860
_exptl_crystal_colour 'colorless'
_exptl_crystal_description 'block'
_diffrn_ambient_temperature 297
_diffrn_radiation_probe x-ray
_diffrn_source synchrotron
#These two values have been output from a single CSD field.
_refine_ls_R_factor_gt 0.0327
_refine_ls_wR_factor_gt 0.0327
_symmetry_cell_setting cubic
_symmetry_space_group_name_H-M 'I -4 3 m'
_symmetry_Int_Tables_number 217
loop_
_symmetry_equiv_pos_site_id
_symmetry_equiv_pos_as_xyz
1 x,y,z
2 1/2+x,1/2+y,1/2+z
3 y,z,x
4 1/2+y,1/2+z,1/2+x
5 z,x,y
6 1/2+z,1/2+x,1/2+y
7 y,-x,-z
8 1/2+y,1/2-x,1/2-z
9 z,-y,-x
10 1/2+z,1/2-y,1/2-x
11 x,-z,-y
12 1/2+x,1/2-z,1/2-y
13 -x,-y,z
14 1/2-x,1/2-y,1/2+z
15 -z,x,-y
16 1/2-z,1/2+x,1/2-y
17 -x,y,-z
18 1/2-x,1/2+y,1/2-z
19 -y,-z,x
20 1/2-y,1/2-z,1/2+x
21 -z,-x,y
22 1/2-z,1/2-x,1/2+y
23 -y,x,-z
24 1/2-y,1/2+x,1/2-z
25 -z,y,-x
26 1/2-z,1/2+y,1/2-x
27 -x,z,-y
28 1/2-x,1/2+z,1/2-y
29 -y,z,-x
30 1/2-y,1/2+z,1/2-x
31 z,y,x
32 1/2+z,1/2+y,1/2+x
33 x,z,y
34 1/2+x,1/2+z,1/2+y
35 y,x,z
36 1/2+y,1/2+x,1/2+z
37 y,-z,-x
38 1/2+y,1/2-z,1/2-x
39 -y,-x,z
40 1/2-y,1/2-x,1/2+z
41 -z,-y,x
42 1/2-z,1/2-y,1/2+x
43 -x,-z,y
44 1/2-x,1/2-z,1/2+y
45 x,-y,-z
46 1/2+x,1/2-y,1/2-z
47 z,-x,-y
48 1/2+z,1/2-x,1/2-y
_cell_length_a 7.0194(2)
_cell_length_b 7.0194(2)
_cell_length_c 7.0194(2)
_cell_angle_alpha 90
_cell_angle_beta 90
_cell_angle_gamma 90
_cell_formula_units_Z 2
loop_
_atom_type_symbol
_atom_type_radius_bond
C 0.68
D 0.23
N 0.68
loop_
_atom_site_label
_atom_site_type_symbol
_atom_site_fract_x
_atom_site_fract_y
_atom_site_fract_z
N1 N 0.62227(18) 0.62227(18) 0.62227(18)
C1 C 0.7381(3) 0.500000(8) 0.500000(8)
D1 D 0.81790 0.42020 0.57980
C1B C 0.5000(3) 0.500000(8) 0.738100(8)
D1B D 0.42020 0.57980 0.81790
C1D C 0.5000(3) 0.738100(8) 0.500000(8)
D1D D 0.57980 0.81790 0.42020
N1F N 0.62227(18) 0.37773(18) 0.37773(18)
C1F C 0.5000(3) 0.261900(8) 0.500000(8)
D1F D 0.42020 0.18210 0.42020
C1H C 0.5000(3) 0.500000(8) 0.261900(8)
D1H D 0.57980 0.57980 0.18210
N1L N 0.37773(18) 0.37773(18) 0.62227(18)
C1L C 0.2619(3) 0.500000(8) 0.500000(8)
D1L D 0.18210 0.57980 0.57980
N1N N 0.37773(18) 0.62227(18) 0.37773(18)
D1N D 0.42020 0.81790 0.57980
D1P D 0.18210 0.42020 0.42020
D1R D 0.57980 0.42020 0.81790
D1X D 0.42020 0.42020 0.18210
D1FA D 0.81790 0.57980 0.42020
D1LA D 0.57980 0.18210 0.57980
#END

data_CSD_CIF_HXMTAM42
_audit_creation_date 2020-12-08
_audit_creation_method CSD-ConQuest-V1
_database_code_CSD HXMTAM42
_database_code_depnum_ccdc_archive 'CCDC 2008826'
_chemical_formula_sum 'C6 H12 N4'
_chemical_formula_moiety
;
C6 H12 N4
;
_journal_coeditor_code "kc5114"
_journal_coden_Cambridge 228
_journal_volume 53
_journal_year 2020
_journal_page_first 1519
_journal_name_full 'J.Appl.Crystallogr. '
loop_
_publ_author_name
"C.J.McMonagle"
"D.R.Allan"
"M.R.Warren"
"K.V.Kamenev"
"G.F.Turner"
"S.A.Moggach"
_chemical_name_systematic
;
hexamethylenetetramine
;
_chemical_name_common
;
Methenamine; DrugBank: DB06799
;
_cell_volume    346.925
_exptl_crystal_colour 'colorless'
_exptl_crystal_density_diffrn 1.342
_exptl_crystal_description 'block'
_diffrn_ambient_temperature 297
_diffrn_radiation_probe x-ray
_diffrn_source synchrotron
#These two values have been output from a single CSD field.
_refine_ls_R_factor_gt 0.044
_refine_ls_wR_factor_gt 0.044
_symmetry_cell_setting cubic
_symmetry_space_group_name_H-M 'I -4 3 m'
_symmetry_Int_Tables_number 217
loop_
_symmetry_equiv_pos_site_id
_symmetry_equiv_pos_as_xyz
1 x,y,z
2 1/2+x,1/2+y,1/2+z
3 y,z,x
4 1/2+y,1/2+z,1/2+x
5 z,x,y
6 1/2+z,1/2+x,1/2+y
7 y,-x,-z
8 1/2+y,1/2-x,1/2-z
9 z,-y,-x
10 1/2+z,1/2-y,1/2-x
11 x,-z,-y
12 1/2+x,1/2-z,1/2-y
13 -x,-y,z
14 1/2-x,1/2-y,1/2+z
15 -z,x,-y
16 1/2-z,1/2+x,1/2-y
17 -x,y,-z
18 1/2-x,1/2+y,1/2-z
19 -y,-z,x
20 1/2-y,1/2-z,1/2+x
21 -z,-x,y
22 1/2-z,1/2-x,1/2+y
23 -y,x,-z
24 1/2-y,1/2+x,1/2-z
25 -z,y,-x
26 1/2-z,1/2+y,1/2-x
27 -x,z,-y
28 1/2-x,1/2+z,1/2-y
29 -y,z,-x
30 1/2-y,1/2+z,1/2-x
31 z,y,x
32 1/2+z,1/2+y,1/2+x
33 x,z,y
34 1/2+x,1/2+z,1/2+y
35 y,x,z
36 1/2+y,1/2+x,1/2+z
37 y,-z,-x
38 1/2+y,1/2-z,1/2-x
39 -y,-x,z
40 1/2-y,1/2-x,1/2+z
41 -z,-y,x
42 1/2-z,1/2-y,1/2+x
43 -x,-z,y
44 1/2-x,1/2-z,1/2+y
45 x,-y,-z
46 1/2+x,1/2-y,1/2-z
47 z,-x,-y
48 1/2+z,1/2-x,1/2-y
_cell_length_a 7.0266(4)
_cell_length_b 7.0266(4)
_cell_length_c 7.0266(4)
_cell_angle_alpha 90
_cell_angle_beta 90
_cell_angle_gamma 90
_cell_formula_units_Z 2
loop_
_atom_type_symbol
_atom_type_radius_bond
C 0.68
H 0.23
N 0.68
loop_
_atom_site_label
_atom_site_type_symbol
_atom_site_fract_x
_atom_site_fract_y
_atom_site_fract_z
N1 N 0.62243(19) 0.62243(19) 0.62243(19)
C1 C 0.7379(3) 0.500000(8) 0.500000(8)
H1 H 0.81760 0.42030 0.57970
C1B C 0.5000(3) 0.500000(8) 0.737900(8)
H1B H 0.42030 0.57970 0.81760
C1D C 0.5000(3) 0.737900(8) 0.500000(8)
H1D H 0.57970 0.81760 0.42030
N1F N 0.62243(19) 0.37757(19) 0.37757(19)
C1F C 0.5000(3) 0.262100(8) 0.500000(8)
H1F H 0.42030 0.18240 0.42030
C1H C 0.5000(3) 0.500000(8) 0.262100(8)
H1H H 0.57970 0.57970 0.18240
N1L N 0.37757(19) 0.37757(19) 0.62243(19)
C1L C 0.2621(3) 0.500000(8) 0.500000(8)
H1L H 0.18240 0.57970 0.57970
N1N N 0.37757(19) 0.62243(19) 0.37757(19)
H1N H 0.42030 0.81760 0.57970
H1P H 0.18240 0.42030 0.42030
H1R H 0.57970 0.42030 0.81760
H1X H 0.42030 0.42030 0.18240
H1FA H 0.81760 0.57970 0.42030
H1LA H 0.57970 0.18240 0.57970
#END

data_CSD_CIF_HXMTAM44
_audit_creation_date 2020-12-08
_audit_creation_method CSD-ConQuest-V1
_database_code_CSD HXMTAM44
_database_code_depnum_ccdc_archive 'CCDC 2008828'
_chemical_formula_sum 'C6 H12 N4'
_chemical_formula_moiety
;
C6 H12 N4
;
_journal_coeditor_code "kc5114"
_journal_coden_Cambridge 228
_journal_volume 53
_journal_year 2020
_journal_page_first 1519
_journal_name_full 'J.Appl.Crystallogr. '
loop_
_publ_author_name
"C.J.McMonagle"
"D.R.Allan"
"M.R.Warren"
"K.V.Kamenev"
"G.F.Turner"
"S.A.Moggach"
_chemical_name_systematic
;
hexamethylenetetramine
;
_chemical_name_common
;
Methenamine; DrugBank: DB06799
;
_cell_volume    346.126
_exptl_crystal_colour 'colorless'
_exptl_crystal_density_diffrn 1.345
_exptl_crystal_description 'block'
_diffrn_ambient_temperature 297
_diffrn_ambient_pressure 20000.0
_diffrn_radiation_probe x-ray
_diffrn_source synchrotron
#These two values have been output from a single CSD field.
_refine_ls_R_factor_gt 0.0481
_refine_ls_wR_factor_gt 0.0481
_symmetry_cell_setting cubic
_symmetry_space_group_name_H-M 'I -4 3 m'
_symmetry_Int_Tables_number 217
loop_
_symmetry_equiv_pos_site_id
_symmetry_equiv_pos_as_xyz
1 x,y,z
2 1/2+x,1/2+y,1/2+z
3 y,z,x
4 1/2+y,1/2+z,1/2+x
5 z,x,y
6 1/2+z,1/2+x,1/2+y
7 y,-x,-z
8 1/2+y,1/2-x,1/2-z
9 z,-y,-x
10 1/2+z,1/2-y,1/2-x
11 x,-z,-y
12 1/2+x,1/2-z,1/2-y
13 -x,-y,z
14 1/2-x,1/2-y,1/2+z
15 -z,x,-y
16 1/2-z,1/2+x,1/2-y
17 -x,y,-z
18 1/2-x,1/2+y,1/2-z
19 -y,-z,x
20 1/2-y,1/2-z,1/2+x
21 -z,-x,y
22 1/2-z,1/2-x,1/2+y
23 -y,x,-z
24 1/2-y,1/2+x,1/2-z
25 -z,y,-x
26 1/2-z,1/2+y,1/2-x
27 -x,z,-y
28 1/2-x,1/2+z,1/2-y
29 -y,z,-x
30 1/2-y,1/2+z,1/2-x
31 z,y,x
32 1/2+z,1/2+y,1/2+x
33 x,z,y
34 1/2+x,1/2+z,1/2+y
35 y,x,z
36 1/2+y,1/2+x,1/2+z
37 y,-z,-x
38 1/2+y,1/2-z,1/2-x
39 -y,-x,z
40 1/2-y,1/2-x,1/2+z
41 -z,-y,x
42 1/2-z,1/2-y,1/2+x
43 -x,-z,y
44 1/2-x,1/2-z,1/2+y
45 x,-y,-z
46 1/2+x,1/2-y,1/2-z
47 z,-x,-y
48 1/2+z,1/2-x,1/2-y
_cell_length_a 7.0212(4)
_cell_length_b 7.0212(4)
_cell_length_c 7.0212(4)
_cell_angle_alpha 90
_cell_angle_beta 90
_cell_angle_gamma 90
_cell_formula_units_Z 2
loop_
_atom_type_symbol
_atom_type_radius_bond
C 0.68
H 0.23
N 0.68
loop_
_atom_site_label
_atom_site_type_symbol
_atom_site_fract_x
_atom_site_fract_y
_atom_site_fract_z
N1 N 0.6225(2) 0.6225(2) 0.6225(2)
C1 C 0.7377(4) 0.500000(8) 0.500000(8)
H1 H 0.81750 0.57980 0.42020
C1B C 0.5000(4) 0.500000(8) 0.737700(8)
H1B H 0.57980 0.42020 0.81750
C1D C 0.5000(4) 0.737700(8) 0.500000(8)
H1D H 0.42020 0.81750 0.57980
N1F N 0.6225(2) 0.3775(2) 0.3775(2)
C1F C 0.5000(4) 0.262300(8) 0.500000(8)
H1F H 0.57980 0.18250 0.57980
C1H C 0.5000(4) 0.500000(8) 0.262300(8)
H1H H 0.42020 0.42020 0.18250
N1L N 0.3775(2) 0.3775(2) 0.6225(2)
C1L C 0.2623(4) 0.500000(8) 0.500000(8)
H1L H 0.18250 0.42020 0.42020
N1N N 0.3775(2) 0.6225(2) 0.3775(2)
H1N H 0.57980 0.81750 0.42020
H1P H 0.18250 0.57980 0.57980
H1R H 0.42020 0.57980 0.81750
H1X H 0.57980 0.57980 0.18250
H1FA H 0.81750 0.42020 0.57980
H1LA H 0.42020 0.18250 0.42020
#END

data_CSD_CIF_HXMTAM45
_audit_creation_date 2020-12-08
_audit_creation_method CSD-ConQuest-V1
_database_code_CSD HXMTAM45
_database_code_depnum_ccdc_archive 'CCDC 2008829'
_chemical_formula_sum 'C6 H12 N4'
_chemical_formula_moiety
;
C6 H12 N4
;
_journal_coeditor_code "kc5114"
_journal_coden_Cambridge 228
_journal_volume 53
_journal_year 2020
_journal_page_first 1519
_journal_name_full 'J.Appl.Crystallogr. '
loop_
_publ_author_name
"C.J.McMonagle"
"D.R.Allan"
"M.R.Warren"
"K.V.Kamenev"
"G.F.Turner"
"S.A.Moggach"
_chemical_name_systematic
;
hexamethylenetetramine
;
_chemical_name_common
;
Methenamine; DrugBank: DB06799
;
_cell_volume    345.830
_exptl_crystal_colour 'colorless'
_exptl_crystal_density_diffrn 1.346
_exptl_crystal_description 'block'
_diffrn_ambient_temperature 297
_diffrn_ambient_pressure 30000.0
_diffrn_radiation_probe x-ray
_diffrn_source synchrotron
#These two values have been output from a single CSD field.
_refine_ls_R_factor_gt 0.0483
_refine_ls_wR_factor_gt 0.0483
_symmetry_cell_setting cubic
_symmetry_space_group_name_H-M 'I -4 3 m'
_symmetry_Int_Tables_number 217
loop_
_symmetry_equiv_pos_site_id
_symmetry_equiv_pos_as_xyz
1 x,y,z
2 1/2+x,1/2+y,1/2+z
3 y,z,x
4 1/2+y,1/2+z,1/2+x
5 z,x,y
6 1/2+z,1/2+x,1/2+y
7 y,-x,-z
8 1/2+y,1/2-x,1/2-z
9 z,-y,-x
10 1/2+z,1/2-y,1/2-x
11 x,-z,-y
12 1/2+x,1/2-z,1/2-y
13 -x,-y,z
14 1/2-x,1/2-y,1/2+z
15 -z,x,-y
16 1/2-z,1/2+x,1/2-y
17 -x,y,-z
18 1/2-x,1/2+y,1/2-z
19 -y,-z,x
20 1/2-y,1/2-z,1/2+x
21 -z,-x,y
22 1/2-z,1/2-x,1/2+y
23 -y,x,-z
24 1/2-y,1/2+x,1/2-z
25 -z,y,-x
26 1/2-z,1/2+y,1/2-x
27 -x,z,-y
28 1/2-x,1/2+z,1/2-y
29 -y,z,-x
30 1/2-y,1/2+z,1/2-x
31 z,y,x
32 1/2+z,1/2+y,1/2+x
33 x,z,y
34 1/2+x,1/2+z,1/2+y
35 y,x,z
36 1/2+y,1/2+x,1/2+z
37 y,-z,-x
38 1/2+y,1/2-z,1/2-x
39 -y,-x,z
40 1/2-y,1/2-x,1/2+z
41 -z,-y,x
42 1/2-z,1/2-y,1/2+x
43 -x,-z,y
44 1/2-x,1/2-z,1/2+y
45 x,-y,-z
46 1/2+x,1/2-y,1/2-z
47 z,-x,-y
48 1/2+z,1/2-x,1/2-y
_cell_length_a 7.0192(4)
_cell_length_b 7.0192(4)
_cell_length_c 7.0192(4)
_cell_angle_alpha 90
_cell_angle_beta 90
_cell_angle_gamma 90
_cell_formula_units_Z 2
loop_
_atom_type_symbol
_atom_type_radius_bond
C 0.68
H 0.23
N 0.68
loop_
_atom_site_label
_atom_site_type_symbol
_atom_site_fract_x
_atom_site_fract_y
_atom_site_fract_z
N1 N 0.6226(2) 0.6226(2) 0.6226(2)
C1 C 0.7380(3) 0.500000(8) 0.500000(8)
H1 H 0.81610 0.42190 0.57810
C1B C 0.5000(3) 0.500000(8) 0.738000(8)
H1B H 0.42190 0.57810 0.81610
C1D C 0.5000(3) 0.738000(8) 0.500000(8)
H1D H 0.57810 0.81610 0.42190
N1F N 0.6226(2) 0.3774(2) 0.3774(2)
C1F C 0.5000(3) 0.262000(8) 0.500000(8)
H1F H 0.42190 0.18390 0.42190
C1H C 0.5000(3) 0.500000(8) 0.262000(8)
H1H H 0.57810 0.57810 0.18390
N1L N 0.3774(2) 0.3774(2) 0.6226(2)
C1L C 0.2620(3) 0.500000(8) 0.500000(8)
H1L H 0.18390 0.57810 0.57810
N1N N 0.3774(2) 0.6226(2) 0.3774(2)
H1N H 0.42190 0.81610 0.57810
H1P H 0.18390 0.42190 0.42190
H1R H 0.57810 0.42190 0.81610
H1X H 0.42190 0.42190 0.18390
H1FA H 0.81610 0.57810 0.42190
H1LA H 0.57810 0.18390 0.57810
#END

data_CSD_CIF_HXMTAM46
_audit_creation_date 2020-12-08
_audit_creation_method CSD-ConQuest-V1
_database_code_CSD HXMTAM46
_database_code_depnum_ccdc_archive 'CCDC 2008830'
_chemical_formula_sum 'C6 H12 N4'
_chemical_formula_moiety
;
C6 H12 N4
;
_journal_coeditor_code "kc5114"
_journal_coden_Cambridge 228
_journal_volume 53
_journal_year 2020
_journal_page_first 1519
_journal_name_full 'J.Appl.Crystallogr. '
loop_
_publ_author_name
"C.J.McMonagle"
"D.R.Allan"
"M.R.Warren"
"K.V.Kamenev"
"G.F.Turner"
"S.A.Moggach"
_chemical_name_systematic
;
hexamethylenetetramine
;
_chemical_name_common
;
Methenamine; DrugBank: DB06799
;
_cell_volume    345.343
_exptl_crystal_colour 'colorless'
_exptl_crystal_density_diffrn 1.348
_exptl_crystal_description 'block'
_diffrn_ambient_temperature 297
_diffrn_ambient_pressure 40000.0
_diffrn_radiation_probe x-ray
_diffrn_source synchrotron
#These two values have been output from a single CSD field.
_refine_ls_R_factor_gt 0.0453
_refine_ls_wR_factor_gt 0.0453
_symmetry_cell_setting cubic
_symmetry_space_group_name_H-M 'I -4 3 m'
_symmetry_Int_Tables_number 217
loop_
_symmetry_equiv_pos_site_id
_symmetry_equiv_pos_as_xyz
1 x,y,z
2 1/2+x,1/2+y,1/2+z
3 y,z,x
4 1/2+y,1/2+z,1/2+x
5 z,x,y
6 1/2+z,1/2+x,1/2+y
7 y,-x,-z
8 1/2+y,1/2-x,1/2-z
9 z,-y,-x
10 1/2+z,1/2-y,1/2-x
11 x,-z,-y
12 1/2+x,1/2-z,1/2-y
13 -x,-y,z
14 1/2-x,1/2-y,1/2+z
15 -z,x,-y
16 1/2-z,1/2+x,1/2-y
17 -x,y,-z
18 1/2-x,1/2+y,1/2-z
19 -y,-z,x
20 1/2-y,1/2-z,1/2+x
21 -z,-x,y
22 1/2-z,1/2-x,1/2+y
23 -y,x,-z
24 1/2-y,1/2+x,1/2-z
25 -z,y,-x
26 1/2-z,1/2+y,1/2-x
27 -x,z,-y
28 1/2-x,1/2+z,1/2-y
29 -y,z,-x
30 1/2-y,1/2+z,1/2-x
31 z,y,x
32 1/2+z,1/2+y,1/2+x
33 x,z,y
34 1/2+x,1/2+z,1/2+y
35 y,x,z
36 1/2+y,1/2+x,1/2+z
37 y,-z,-x
38 1/2+y,1/2-z,1/2-x
39 -y,-x,z
40 1/2-y,1/2-x,1/2+z
41 -z,-y,x
42 1/2-z,1/2-y,1/2+x
43 -x,-z,y
44 1/2-x,1/2-z,1/2+y
45 x,-y,-z
46 1/2+x,1/2-y,1/2-z
47 z,-x,-y
48 1/2+z,1/2-x,1/2-y
_cell_length_a 7.0159(4)
_cell_length_b 7.0159(4)
_cell_length_c 7.0159(4)
_cell_angle_alpha 90
_cell_angle_beta 90
_cell_angle_gamma 90
_cell_formula_units_Z 2
loop_
_atom_type_symbol
_atom_type_radius_bond
C 0.68
H 0.23
N 0.68
loop_
_atom_site_label
_atom_site_type_symbol
_atom_site_fract_x
_atom_site_fract_y
_atom_site_fract_z
N1 N 0.6225(2) 0.6225(2) 0.6225(2)
C1 C 0.7380(4) 0.500000(8) 0.500000(8)
H1 H 0.81620 0.42190 0.57810
C1B C 0.5000(4) 0.500000(8) 0.738000(8)
H1B H 0.42190 0.57810 0.81620
C1D C 0.5000(4) 0.738000(8) 0.500000(8)
H1D H 0.57810 0.81620 0.42190
N1F N 0.6225(2) 0.3775(2) 0.3775(2)
C1F C 0.5000(4) 0.262000(8) 0.500000(8)
H1F H 0.42190 0.18380 0.42190
C1H C 0.5000(4) 0.500000(8) 0.262000(8)
H1H H 0.57810 0.57810 0.18380
N1L N 0.3775(2) 0.3775(2) 0.6225(2)
C1L C 0.2620(4) 0.500000(8) 0.500000(8)
H1L H 0.18380 0.57810 0.57810
N1N N 0.3775(2) 0.6225(2) 0.3775(2)
H1N H 0.42190 0.81620 0.57810
H1P H 0.18380 0.42190 0.42190
H1R H 0.57810 0.42190 0.81620
H1X H 0.42190 0.42190 0.18380
H1FA H 0.81620 0.57810 0.42190
H1LA H 0.57810 0.18380 0.57810
#END

data_CSD_CIF_HXMTAM47
_audit_creation_date 2020-12-08
_audit_creation_method CSD-ConQuest-V1
_database_code_CSD HXMTAM47
_database_code_depnum_ccdc_archive 'CCDC 2008831'
_chemical_formula_sum 'C6 H12 N4'
_chemical_formula_moiety
;
C6 H12 N4
;
_journal_coeditor_code "kc5114"
_journal_coden_Cambridge 228
_journal_volume 53
_journal_year 2020
_journal_page_first 1519
_journal_name_full 'J.Appl.Crystallogr. '
loop_
_publ_author_name
"C.J.McMonagle"
"D.R.Allan"
"M.R.Warren"
"K.V.Kamenev"
"G.F.Turner"
"S.A.Moggach"
_chemical_name_systematic
;
hexamethylenetetramine
;
_chemical_name_common
;
Methenamine; DrugBank: DB06799
;
_cell_volume    345.092
_exptl_crystal_colour 'colorless'
_exptl_crystal_density_diffrn 1.349
_exptl_crystal_description 'block'
_diffrn_ambient_temperature 297
_diffrn_ambient_pressure 50000.0
_diffrn_radiation_probe x-ray
_diffrn_source synchrotron
#These two values have been output from a single CSD field.
_refine_ls_R_factor_gt 0.0455
_refine_ls_wR_factor_gt 0.0455
_symmetry_cell_setting cubic
_symmetry_space_group_name_H-M 'I -4 3 m'
_symmetry_Int_Tables_number 217
loop_
_symmetry_equiv_pos_site_id
_symmetry_equiv_pos_as_xyz
1 x,y,z
2 1/2+x,1/2+y,1/2+z
3 y,z,x
4 1/2+y,1/2+z,1/2+x
5 z,x,y
6 1/2+z,1/2+x,1/2+y
7 y,-x,-z
8 1/2+y,1/2-x,1/2-z
9 z,-y,-x
10 1/2+z,1/2-y,1/2-x
11 x,-z,-y
12 1/2+x,1/2-z,1/2-y
13 -x,-y,z
14 1/2-x,1/2-y,1/2+z
15 -z,x,-y
16 1/2-z,1/2+x,1/2-y
17 -x,y,-z
18 1/2-x,1/2+y,1/2-z
19 -y,-z,x
20 1/2-y,1/2-z,1/2+x
21 -z,-x,y
22 1/2-z,1/2-x,1/2+y
23 -y,x,-z
24 1/2-y,1/2+x,1/2-z
25 -z,y,-x
26 1/2-z,1/2+y,1/2-x
27 -x,z,-y
28 1/2-x,1/2+z,1/2-y
29 -y,z,-x
30 1/2-y,1/2+z,1/2-x
31 z,y,x
32 1/2+z,1/2+y,1/2+x
33 x,z,y
34 1/2+x,1/2+z,1/2+y
35 y,x,z
36 1/2+y,1/2+x,1/2+z
37 y,-z,-x
38 1/2+y,1/2-z,1/2-x
39 -y,-x,z
40 1/2-y,1/2-x,1/2+z
41 -z,-y,x
42 1/2-z,1/2-y,1/2+x
43 -x,-z,y
44 1/2-x,1/2-z,1/2+y
45 x,-y,-z
46 1/2+x,1/2-y,1/2-z
47 z,-x,-y
48 1/2+z,1/2-x,1/2-y
_cell_length_a 7.0142(4)
_cell_length_b 7.0142(4)
_cell_length_c 7.0142(4)
_cell_angle_alpha 90
_cell_angle_beta 90
_cell_angle_gamma 90
_cell_formula_units_Z 2
loop_
_atom_type_symbol
_atom_type_radius_bond
C 0.68
H 0.23
N 0.68
loop_
_atom_site_label
_atom_site_type_symbol
_atom_site_fract_x
_atom_site_fract_y
_atom_site_fract_z
N1 N 0.6227(2) 0.6227(2) 0.6227(2)
C1 C 0.7381(4) 0.500000(8) 0.500000(8)
H1 H 0.81790 0.57980 0.42020
C1B C 0.5000(4) 0.500000(8) 0.738100(8)
H1B H 0.57980 0.42020 0.81790
C1D C 0.5000(4) 0.738100(8) 0.500000(8)
H1D H 0.42020 0.81790 0.57980
N1F N 0.6227(2) 0.3773(2) 0.3773(2)
C1F C 0.5000(4) 0.261900(8) 0.500000(8)
H1F H 0.57980 0.18210 0.57980
C1H C 0.5000(4) 0.500000(8) 0.261900(8)
H1H H 0.42020 0.42020 0.18210
N1L N 0.3773(2) 0.3773(2) 0.6227(2)
C1L C 0.2619(4) 0.500000(8) 0.500000(8)
H1L H 0.18210 0.42020 0.42020
N1N N 0.3773(2) 0.6227(2) 0.3773(2)
H1N H 0.57980 0.81790 0.42020
H1P H 0.18210 0.57980 0.57980
H1R H 0.42020 0.57980 0.81790
H1X H 0.57980 0.57980 0.18210
H1FA H 0.81790 0.42020 0.57980
H1LA H 0.42020 0.18210 0.42020
#END

data_CSD_CIF_HXMTAM48
_audit_creation_date 2020-12-08
_audit_creation_method CSD-ConQuest-V1
_database_code_CSD HXMTAM48
_database_code_depnum_ccdc_archive 'CCDC 2008832'
_chemical_formula_sum 'C6 H12 N4'
_chemical_formula_moiety
;
C6 H12 N4
;
_journal_coeditor_code "kc5114"
_journal_coden_Cambridge 228
_journal_volume 53
_journal_year 2020
_journal_page_first 1519
_journal_name_full 'J.Appl.Crystallogr. '
loop_
_publ_author_name
"C.J.McMonagle"
"D.R.Allan"
"M.R.Warren"
"K.V.Kamenev"
"G.F.Turner"
"S.A.Moggach"
_chemical_name_systematic
;
hexamethylenetetramine
;
_chemical_name_common
;
Methenamine; DrugBank: DB06799
;
_cell_volume    344.738
_exptl_crystal_colour 'colorless'
_exptl_crystal_density_diffrn 1.35
_exptl_crystal_description 'block'
_diffrn_ambient_temperature 297
_diffrn_ambient_pressure 60000.0
_diffrn_radiation_probe x-ray
_diffrn_source synchrotron
#These two values have been output from a single CSD field.
_refine_ls_R_factor_gt 0.0421
_refine_ls_wR_factor_gt 0.0421
_symmetry_cell_setting cubic
_symmetry_space_group_name_H-M 'I -4 3 m'
_symmetry_Int_Tables_number 217
loop_
_symmetry_equiv_pos_site_id
_symmetry_equiv_pos_as_xyz
1 x,y,z
2 1/2+x,1/2+y,1/2+z
3 y,z,x
4 1/2+y,1/2+z,1/2+x
5 z,x,y
6 1/2+z,1/2+x,1/2+y
7 y,-x,-z
8 1/2+y,1/2-x,1/2-z
9 z,-y,-x
10 1/2+z,1/2-y,1/2-x
11 x,-z,-y
12 1/2+x,1/2-z,1/2-y
13 -x,-y,z
14 1/2-x,1/2-y,1/2+z
15 -z,x,-y
16 1/2-z,1/2+x,1/2-y
17 -x,y,-z
18 1/2-x,1/2+y,1/2-z
19 -y,-z,x
20 1/2-y,1/2-z,1/2+x
21 -z,-x,y
22 1/2-z,1/2-x,1/2+y
23 -y,x,-z
24 1/2-y,1/2+x,1/2-z
25 -z,y,-x
26 1/2-z,1/2+y,1/2-x
27 -x,z,-y
28 1/2-x,1/2+z,1/2-y
29 -y,z,-x
30 1/2-y,1/2+z,1/2-x
31 z,y,x
32 1/2+z,1/2+y,1/2+x
33 x,z,y
34 1/2+x,1/2+z,1/2+y
35 y,x,z
36 1/2+y,1/2+x,1/2+z
37 y,-z,-x
38 1/2+y,1/2-z,1/2-x
39 -y,-x,z
40 1/2-y,1/2-x,1/2+z
41 -z,-y,x
42 1/2-z,1/2-y,1/2+x
43 -x,-z,y
44 1/2-x,1/2-z,1/2+y
45 x,-y,-z
46 1/2+x,1/2-y,1/2-z
47 z,-x,-y
48 1/2+z,1/2-x,1/2-y
_cell_length_a 7.0118(3)
_cell_length_b 7.0118(3)
_cell_length_c 7.0118(3)
_cell_angle_alpha 90
_cell_angle_beta 90
_cell_angle_gamma 90
_cell_formula_units_Z 2
loop_
_atom_type_symbol
_atom_type_radius_bond
C 0.68
H 0.23
N 0.68
loop_
_atom_site_label
_atom_site_type_symbol
_atom_site_fract_x
_atom_site_fract_y
_atom_site_fract_z
N1 N 0.6227(2) 0.6227(2) 0.6227(2)
C1 C 0.7383(3) 0.500000(8) 0.500000(8)
H1 H 0.81810 0.42010 0.57990
C1B C 0.5000(3) 0.500000(8) 0.738300(8)
H1B H 0.42010 0.57990 0.81810
C1D C 0.5000(3) 0.738300(8) 0.500000(8)
H1D H 0.57990 0.81810 0.42010
N1F N 0.6227(2) 0.3773(2) 0.3773(2)
C1F C 0.5000(3) 0.261700(8) 0.500000(8)
H1F H 0.42010 0.18190 0.42010
C1H C 0.5000(3) 0.500000(8) 0.261700(8)
H1H H 0.57990 0.57990 0.18190
N1L N 0.3773(2) 0.3773(2) 0.6227(2)
C1L C 0.2617(3) 0.500000(8) 0.500000(8)
H1L H 0.18190 0.57990 0.57990
N1N N 0.3773(2) 0.6227(2) 0.3773(2)
H1N H 0.42010 0.81810 0.57990
H1P H 0.18190 0.42010 0.42010
H1R H 0.57990 0.42010 0.81810
H1X H 0.42010 0.42010 0.18190
H1FA H 0.81810 0.57990 0.42010
H1LA H 0.57990 0.18190 0.57990
#END

data_CSD_CIF_HXMTAM49
_audit_creation_date 2020-12-08
_audit_creation_method CSD-ConQuest-V1
_database_code_CSD HXMTAM49
_database_code_depnum_ccdc_archive 'CCDC 2008833'
_chemical_formula_sum 'C6 H12 N4'
_chemical_formula_moiety
;
C6 H12 N4
;
_journal_coeditor_code "kc5114"
_journal_coden_Cambridge 228
_journal_volume 53
_journal_year 2020
_journal_page_first 1519
_journal_name_full 'J.Appl.Crystallogr. '
loop_
_publ_author_name
"C.J.McMonagle"
"D.R.Allan"
"M.R.Warren"
"K.V.Kamenev"
"G.F.Turner"
"S.A.Moggach"
_chemical_name_systematic
;
hexamethylenetetramine
;
_chemical_name_common
;
Methenamine; DrugBank: DB06799
;
_cell_volume    344.472
_exptl_crystal_colour 'colorless'
_exptl_crystal_density_diffrn 1.351
_exptl_crystal_description 'block'
_diffrn_ambient_temperature 297
_diffrn_ambient_pressure 70000.0
_diffrn_radiation_probe x-ray
_diffrn_source synchrotron
#These two values have been output from a single CSD field.
_refine_ls_R_factor_gt 0.0425
_refine_ls_wR_factor_gt 0.0425
_symmetry_cell_setting cubic
_symmetry_space_group_name_H-M 'I -4 3 m'
_symmetry_Int_Tables_number 217
loop_
_symmetry_equiv_pos_site_id
_symmetry_equiv_pos_as_xyz
1 x,y,z
2 1/2+x,1/2+y,1/2+z
3 y,z,x
4 1/2+y,1/2+z,1/2+x
5 z,x,y
6 1/2+z,1/2+x,1/2+y
7 y,-x,-z
8 1/2+y,1/2-x,1/2-z
9 z,-y,-x
10 1/2+z,1/2-y,1/2-x
11 x,-z,-y
12 1/2+x,1/2-z,1/2-y
13 -x,-y,z
14 1/2-x,1/2-y,1/2+z
15 -z,x,-y
16 1/2-z,1/2+x,1/2-y
17 -x,y,-z
18 1/2-x,1/2+y,1/2-z
19 -y,-z,x
20 1/2-y,1/2-z,1/2+x
21 -z,-x,y
22 1/2-z,1/2-x,1/2+y
23 -y,x,-z
24 1/2-y,1/2+x,1/2-z
25 -z,y,-x
26 1/2-z,1/2+y,1/2-x
27 -x,z,-y
28 1/2-x,1/2+z,1/2-y
29 -y,z,-x
30 1/2-y,1/2+z,1/2-x
31 z,y,x
32 1/2+z,1/2+y,1/2+x
33 x,z,y
34 1/2+x,1/2+z,1/2+y
35 y,x,z
36 1/2+y,1/2+x,1/2+z
37 y,-z,-x
38 1/2+y,1/2-z,1/2-x
39 -y,-x,z
40 1/2-y,1/2-x,1/2+z
41 -z,-y,x
42 1/2-z,1/2-y,1/2+x
43 -x,-z,y
44 1/2-x,1/2-z,1/2+y
45 x,-y,-z
46 1/2+x,1/2-y,1/2-z
47 z,-x,-y
48 1/2+z,1/2-x,1/2-y
_cell_length_a 7.0100(3)
_cell_length_b 7.0100(3)
_cell_length_c 7.0100(3)
_cell_angle_alpha 90
_cell_angle_beta 90
_cell_angle_gamma 90
_cell_formula_units_Z 2
loop_
_atom_type_symbol
_atom_type_radius_bond
C 0.68
H 0.23
N 0.68
loop_
_atom_site_label
_atom_site_type_symbol
_atom_site_fract_x
_atom_site_fract_y
_atom_site_fract_z
N1 N 0.6226(2) 0.6226(2) 0.6226(2)
C1 C 0.7381(4) 0.500000(8) 0.500000(8)
H1 H 0.81630 0.42190 0.57810
C1B C 0.5000(4) 0.500000(8) 0.738100(8)
H1B H 0.42190 0.57810 0.81630
C1D C 0.5000(4) 0.738100(8) 0.500000(8)
H1D H 0.57810 0.81630 0.42190
N1F N 0.6226(2) 0.3774(2) 0.3774(2)
C1F C 0.5000(4) 0.261900(8) 0.500000(8)
H1F H 0.42190 0.18370 0.42190
C1H C 0.5000(4) 0.500000(8) 0.261900(8)
H1H H 0.57810 0.57810 0.18370
N1L N 0.3774(2) 0.3774(2) 0.6226(2)
C1L C 0.2619(4) 0.500000(8) 0.500000(8)
H1L H 0.18370 0.57810 0.57810
N1N N 0.3774(2) 0.6226(2) 0.3774(2)
H1N H 0.42190 0.81630 0.57810
H1P H 0.18370 0.42190 0.42190
H1R H 0.57810 0.42190 0.81630
H1X H 0.42190 0.42190 0.18370
H1FA H 0.81630 0.57810 0.42190
H1LA H 0.57810 0.18370 0.57810
#END

data_CSD_CIF_HXMTAM50
_audit_creation_date 2020-12-08
_audit_creation_method CSD-ConQuest-V1
_database_code_CSD HXMTAM50
_database_code_depnum_ccdc_archive 'CCDC 2008835'
_chemical_formula_sum 'C6 H12 N4'
_chemical_formula_moiety
;
C6 H12 N4
;
_journal_coeditor_code "kc5114"
_journal_coden_Cambridge 228
_journal_volume 53
_journal_year 2020
_journal_page_first 1519
_journal_name_full 'J.Appl.Crystallogr. '
loop_
_publ_author_name
"C.J.McMonagle"
"D.R.Allan"
"M.R.Warren"
"K.V.Kamenev"
"G.F.Turner"
"S.A.Moggach"
_chemical_name_systematic
;
hexamethylenetetramine
;
_chemical_name_common
;
Methenamine; DrugBank: DB06799
;
_cell_volume    343.677
_exptl_crystal_colour 'colorless'
_exptl_crystal_density_diffrn 1.355
_exptl_crystal_description 'block'
_diffrn_ambient_temperature 297
_diffrn_ambient_pressure 90000.0
_diffrn_radiation_probe x-ray
_diffrn_source synchrotron
#These two values have been output from a single CSD field.
_refine_ls_R_factor_gt 0.0461
_refine_ls_wR_factor_gt 0.0461
_symmetry_cell_setting cubic
_symmetry_space_group_name_H-M 'I -4 3 m'
_symmetry_Int_Tables_number 217
loop_
_symmetry_equiv_pos_site_id
_symmetry_equiv_pos_as_xyz
1 x,y,z
2 1/2+x,1/2+y,1/2+z
3 y,z,x
4 1/2+y,1/2+z,1/2+x
5 z,x,y
6 1/2+z,1/2+x,1/2+y
7 y,-x,-z
8 1/2+y,1/2-x,1/2-z
9 z,-y,-x
10 1/2+z,1/2-y,1/2-x
11 x,-z,-y
12 1/2+x,1/2-z,1/2-y
13 -x,-y,z
14 1/2-x,1/2-y,1/2+z
15 -z,x,-y
16 1/2-z,1/2+x,1/2-y
17 -x,y,-z
18 1/2-x,1/2+y,1/2-z
19 -y,-z,x
20 1/2-y,1/2-z,1/2+x
21 -z,-x,y
22 1/2-z,1/2-x,1/2+y
23 -y,x,-z
24 1/2-y,1/2+x,1/2-z
25 -z,y,-x
26 1/2-z,1/2+y,1/2-x
27 -x,z,-y
28 1/2-x,1/2+z,1/2-y
29 -y,z,-x
30 1/2-y,1/2+z,1/2-x
31 z,y,x
32 1/2+z,1/2+y,1/2+x
33 x,z,y
34 1/2+x,1/2+z,1/2+y
35 y,x,z
36 1/2+y,1/2+x,1/2+z
37 y,-z,-x
38 1/2+y,1/2-z,1/2-x
39 -y,-x,z
40 1/2-y,1/2-x,1/2+z
41 -z,-y,x
42 1/2-z,1/2-y,1/2+x
43 -x,-z,y
44 1/2-x,1/2-z,1/2+y
45 x,-y,-z
46 1/2+x,1/2-y,1/2-z
47 z,-x,-y
48 1/2+z,1/2-x,1/2-y
_cell_length_a 7.0046(3)
_cell_length_b 7.0046(3)
_cell_length_c 7.0046(3)
_cell_angle_alpha 90
_cell_angle_beta 90
_cell_angle_gamma 90
_cell_formula_units_Z 2
loop_
_atom_type_symbol
_atom_type_radius_bond
C 0.68
H 0.23
N 0.68
loop_
_atom_site_label
_atom_site_type_symbol
_atom_site_fract_x
_atom_site_fract_y
_atom_site_fract_z
N1 N 0.6229(2) 0.6229(2) 0.6229(2)
C1 C 0.7384(3) 0.500000(8) 0.500000(8)
H1 H 0.81830 0.57990 0.42010
C1B C 0.5000(3) 0.500000(8) 0.738400(8)
H1B H 0.57990 0.42010 0.81830
C1D C 0.5000(3) 0.738400(8) 0.500000(8)
H1D H 0.42010 0.81830 0.57990
N1F N 0.6229(2) 0.3771(2) 0.3771(2)
C1F C 0.5000(3) 0.261600(8) 0.500000(8)
H1F H 0.57990 0.18170 0.57990
C1H C 0.5000(3) 0.500000(8) 0.261600(8)
H1H H 0.42010 0.42010 0.18170
N1L N 0.3771(2) 0.3771(2) 0.6229(2)
C1L C 0.2616(3) 0.500000(8) 0.500000(8)
H1L H 0.18170 0.42010 0.42010
N1N N 0.3771(2) 0.6229(2) 0.3771(2)
H1N H 0.57990 0.81830 0.42010
H1P H 0.18170 0.57990 0.57990
H1R H 0.42010 0.57990 0.81830
H1X H 0.57990 0.57990 0.18170
H1FA H 0.81830 0.42010 0.57990
H1LA H 0.42010 0.18170 0.42010
#END

data_CSD_CIF_HXMTAM51
_audit_creation_date 2020-12-08
_audit_creation_method CSD-ConQuest-V1
_database_code_CSD HXMTAM51
_database_code_depnum_ccdc_archive 'CCDC 2008836'
_chemical_formula_sum 'C6 H12 N4'
_chemical_formula_moiety
;
C6 H12 N4
;
_journal_coeditor_code "kc5114"
_journal_coden_Cambridge 228
_journal_volume 53
_journal_year 2020
_journal_page_first 1519
_journal_name_full 'J.Appl.Crystallogr. '
loop_
_publ_author_name
"C.J.McMonagle"
"D.R.Allan"
"M.R.Warren"
"K.V.Kamenev"
"G.F.Turner"
"S.A.Moggach"
_chemical_name_systematic
;
hexamethylenetetramine
;
_chemical_name_common
;
Methenamine; DrugBank: DB06799
;
_cell_volume    343.485
_exptl_crystal_colour 'colorless'
_exptl_crystal_density_diffrn 1.355
_exptl_crystal_description 'block'
_diffrn_ambient_temperature 297
_diffrn_ambient_pressure 100000.0
_diffrn_radiation_probe x-ray
_diffrn_source synchrotron
#These two values have been output from a single CSD field.
_refine_ls_R_factor_gt 0.0457
_refine_ls_wR_factor_gt 0.0457
_symmetry_cell_setting cubic
_symmetry_space_group_name_H-M 'I -4 3 m'
_symmetry_Int_Tables_number 217
loop_
_symmetry_equiv_pos_site_id
_symmetry_equiv_pos_as_xyz
1 x,y,z
2 1/2+x,1/2+y,1/2+z
3 y,z,x
4 1/2+y,1/2+z,1/2+x
5 z,x,y
6 1/2+z,1/2+x,1/2+y
7 y,-x,-z
8 1/2+y,1/2-x,1/2-z
9 z,-y,-x
10 1/2+z,1/2-y,1/2-x
11 x,-z,-y
12 1/2+x,1/2-z,1/2-y
13 -x,-y,z
14 1/2-x,1/2-y,1/2+z
15 -z,x,-y
16 1/2-z,1/2+x,1/2-y
17 -x,y,-z
18 1/2-x,1/2+y,1/2-z
19 -y,-z,x
20 1/2-y,1/2-z,1/2+x
21 -z,-x,y
22 1/2-z,1/2-x,1/2+y
23 -y,x,-z
24 1/2-y,1/2+x,1/2-z
25 -z,y,-x
26 1/2-z,1/2+y,1/2-x
27 -x,z,-y
28 1/2-x,1/2+z,1/2-y
29 -y,z,-x
30 1/2-y,1/2+z,1/2-x
31 z,y,x
32 1/2+z,1/2+y,1/2+x
33 x,z,y
34 1/2+x,1/2+z,1/2+y
35 y,x,z
36 1/2+y,1/2+x,1/2+z
37 y,-z,-x
38 1/2+y,1/2-z,1/2-x
39 -y,-x,z
40 1/2-y,1/2-x,1/2+z
41 -z,-y,x
42 1/2-z,1/2-y,1/2+x
43 -x,-z,y
44 1/2-x,1/2-z,1/2+y
45 x,-y,-z
46 1/2+x,1/2-y,1/2-z
47 z,-x,-y
48 1/2+z,1/2-x,1/2-y
_cell_length_a 7.0033(2)
_cell_length_b 7.0033(2)
_cell_length_c 7.0033(2)
_cell_angle_alpha 90
_cell_angle_beta 90
_cell_angle_gamma 90
_cell_formula_units_Z 2
loop_
_atom_type_symbol
_atom_type_radius_bond
C 0.68
H 0.23
N 0.68
loop_
_atom_site_label
_atom_site_type_symbol
_atom_site_fract_x
_atom_site_fract_y
_atom_site_fract_z
N1 N 0.6230(2) 0.6230(2) 0.6230(2)
C1 C 0.7384(3) 0.500000(8) 0.500000(8)
H1 H 0.81840 0.42000 0.58000
C1B C 0.5000(3) 0.500000(8) 0.738400(8)
H1B H 0.42000 0.58000 0.81840
C1D C 0.5000(3) 0.738400(8) 0.500000(8)
H1D H 0.58000 0.81840 0.42000
N1F N 0.6230(2) 0.3770(2) 0.3770(2)
C1F C 0.5000(3) 0.261600(8) 0.500000(8)
H1F H 0.42000 0.18160 0.42000
C1H C 0.5000(3) 0.500000(8) 0.261600(8)
H1H H 0.58000 0.58000 0.18160
N1L N 0.3770(2) 0.3770(2) 0.6230(2)
C1L C 0.2616(3) 0.500000(8) 0.500000(8)
H1L H 0.18160 0.58000 0.58000
N1N N 0.3770(2) 0.6230(2) 0.3770(2)
H1N H 0.42000 0.81840 0.58000
H1P H 0.18160 0.42000 0.42000
H1R H 0.58000 0.42000 0.81840
H1X H 0.42000 0.42000 0.18160
H1FA H 0.81840 0.58000 0.42000
H1LA H 0.58000 0.18160 0.58000
#END

data_CSD_CIF_HXMTAM52
_audit_creation_date 2020-12-08
_audit_creation_method CSD-ConQuest-V1
_database_code_CSD HXMTAM52
_database_code_depnum_ccdc_archive 'CCDC 2008837'
_chemical_formula_sum 'C6 H12 N4'
_chemical_formula_moiety
;
C6 H12 N4
;
_journal_coeditor_code "kc5114"
_journal_coden_Cambridge 228
_journal_volume 53
_journal_year 2020
_journal_page_first 1519
_journal_name_full 'J.Appl.Crystallogr. '
loop_
_publ_author_name
"C.J.McMonagle"
"D.R.Allan"
"M.R.Warren"
"K.V.Kamenev"
"G.F.Turner"
"S.A.Moggach"
_chemical_name_systematic
;
hexamethylenetetramine
;
_chemical_name_common
;
Methenamine; DrugBank: DB06799
;
_cell_volume    343.971
_exptl_crystal_colour 'colorless'
_exptl_crystal_density_diffrn 1.353
_exptl_crystal_description 'block'
_diffrn_ambient_temperature 297
_diffrn_ambient_pressure 80000.0
_diffrn_radiation_probe x-ray
_diffrn_source synchrotron
#These two values have been output from a single CSD field.
_refine_ls_R_factor_gt 0.045
_refine_ls_wR_factor_gt 0.045
_symmetry_cell_setting cubic
_symmetry_space_group_name_H-M 'I -4 3 m'
_symmetry_Int_Tables_number 217
loop_
_symmetry_equiv_pos_site_id
_symmetry_equiv_pos_as_xyz
1 x,y,z
2 1/2+x,1/2+y,1/2+z
3 y,z,x
4 1/2+y,1/2+z,1/2+x
5 z,x,y
6 1/2+z,1/2+x,1/2+y
7 y,-x,-z
8 1/2+y,1/2-x,1/2-z
9 z,-y,-x
10 1/2+z,1/2-y,1/2-x
11 x,-z,-y
12 1/2+x,1/2-z,1/2-y
13 -x,-y,z
14 1/2-x,1/2-y,1/2+z
15 -z,x,-y
16 1/2-z,1/2+x,1/2-y
17 -x,y,-z
18 1/2-x,1/2+y,1/2-z
19 -y,-z,x
20 1/2-y,1/2-z,1/2+x
21 -z,-x,y
22 1/2-z,1/2-x,1/2+y
23 -y,x,-z
24 1/2-y,1/2+x,1/2-z
25 -z,y,-x
26 1/2-z,1/2+y,1/2-x
27 -x,z,-y
28 1/2-x,1/2+z,1/2-y
29 -y,z,-x
30 1/2-y,1/2+z,1/2-x
31 z,y,x
32 1/2+z,1/2+y,1/2+x
33 x,z,y
34 1/2+x,1/2+z,1/2+y
35 y,x,z
36 1/2+y,1/2+x,1/2+z
37 y,-z,-x
38 1/2+y,1/2-z,1/2-x
39 -y,-x,z
40 1/2-y,1/2-x,1/2+z
41 -z,-y,x
42 1/2-z,1/2-y,1/2+x
43 -x,-z,y
44 1/2-x,1/2-z,1/2+y
45 x,-y,-z
46 1/2+x,1/2-y,1/2-z
47 z,-x,-y
48 1/2+z,1/2-x,1/2-y
_cell_length_a 7.0066(2)
_cell_length_b 7.0066(2)
_cell_length_c 7.0066(2)
_cell_angle_alpha 90
_cell_angle_beta 90
_cell_angle_gamma 90
_cell_formula_units_Z 2
loop_
_atom_type_symbol
_atom_type_radius_bond
C 0.68
H 0.23
N 0.68
loop_
_atom_site_label
_atom_site_type_symbol
_atom_site_fract_x
_atom_site_fract_y
_atom_site_fract_z
N1 N 0.6229(2) 0.6229(2) 0.6229(2)
C1 C 0.7385(4) 0.500000(8) 0.500000(8)
H1 H 0.81840 0.57990 0.42010
C1B C 0.5000(4) 0.500000(8) 0.738500(8)
H1B H 0.57990 0.42010 0.81840
C1D C 0.5000(4) 0.738500(8) 0.500000(8)
H1D H 0.42010 0.81840 0.57990
N1F N 0.6229(2) 0.3771(2) 0.3771(2)
C1F C 0.5000(4) 0.261500(8) 0.500000(8)
H1F H 0.57990 0.18160 0.57990
C1H C 0.5000(4) 0.500000(8) 0.261500(8)
H1H H 0.42010 0.42010 0.18160
N1L N 0.3771(2) 0.3771(2) 0.6229(2)
C1L C 0.2615(4) 0.500000(8) 0.500000(8)
H1L H 0.18160 0.42010 0.42010
N1N N 0.3771(2) 0.6229(2) 0.3771(2)
H1N H 0.57990 0.81840 0.42010
H1P H 0.18160 0.57990 0.57990
H1R H 0.42010 0.57990 0.81840
H1X H 0.57990 0.57990 0.18160
H1FA H 0.81840 0.42010 0.57990
H1LA H 0.42010 0.18160 0.42010
#END

data_CSD_CIF_HXMTAM53
_audit_creation_date 2020-12-08
_audit_creation_method CSD-ConQuest-V1
_database_code_CSD HXMTAM53
_database_code_depnum_ccdc_archive 'CCDC 2008838'
_chemical_formula_sum 'C6 H12 N4'
_chemical_formula_moiety
;
C6 H12 N4
;
_journal_coeditor_code "kc5114"
_journal_coden_Cambridge 228
_journal_volume 53
_journal_year 2020
_journal_page_first 1519
_journal_name_full 'J.Appl.Crystallogr. '
loop_
_publ_author_name
"C.J.McMonagle"
"D.R.Allan"
"M.R.Warren"
"K.V.Kamenev"
"G.F.Turner"
"S.A.Moggach"
_chemical_name_systematic
;
hexamethylenetetramine
;
_chemical_name_common
;
Methenamine; DrugBank: DB06799
;
_cell_volume    344.797
_exptl_crystal_colour 'colorless'
_exptl_crystal_density_diffrn 1.35
_exptl_crystal_description 'block'
_diffrn_ambient_temperature 297
_diffrn_ambient_pressure 60000.0
_diffrn_radiation_probe x-ray
_diffrn_source synchrotron
#These two values have been output from a single CSD field.
_refine_ls_R_factor_gt 0.0446
_refine_ls_wR_factor_gt 0.0446
_symmetry_cell_setting cubic
_symmetry_space_group_name_H-M 'I -4 3 m'
_symmetry_Int_Tables_number 217
loop_
_symmetry_equiv_pos_site_id
_symmetry_equiv_pos_as_xyz
1 x,y,z
2 1/2+x,1/2+y,1/2+z
3 y,z,x
4 1/2+y,1/2+z,1/2+x
5 z,x,y
6 1/2+z,1/2+x,1/2+y
7 y,-x,-z
8 1/2+y,1/2-x,1/2-z
9 z,-y,-x
10 1/2+z,1/2-y,1/2-x
11 x,-z,-y
12 1/2+x,1/2-z,1/2-y
13 -x,-y,z
14 1/2-x,1/2-y,1/2+z
15 -z,x,-y
16 1/2-z,1/2+x,1/2-y
17 -x,y,-z
18 1/2-x,1/2+y,1/2-z
19 -y,-z,x
20 1/2-y,1/2-z,1/2+x
21 -z,-x,y
22 1/2-z,1/2-x,1/2+y
23 -y,x,-z
24 1/2-y,1/2+x,1/2-z
25 -z,y,-x
26 1/2-z,1/2+y,1/2-x
27 -x,z,-y
28 1/2-x,1/2+z,1/2-y
29 -y,z,-x
30 1/2-y,1/2+z,1/2-x
31 z,y,x
32 1/2+z,1/2+y,1/2+x
33 x,z,y
34 1/2+x,1/2+z,1/2+y
35 y,x,z
36 1/2+y,1/2+x,1/2+z
37 y,-z,-x
38 1/2+y,1/2-z,1/2-x
39 -y,-x,z
40 1/2-y,1/2-x,1/2+z
41 -z,-y,x
42 1/2-z,1/2-y,1/2+x
43 -x,-z,y
44 1/2-x,1/2-z,1/2+y
45 x,-y,-z
46 1/2+x,1/2-y,1/2-z
47 z,-x,-y
48 1/2+z,1/2-x,1/2-y
_cell_length_a 7.0122(3)
_cell_length_b 7.0122(3)
_cell_length_c 7.0122(3)
_cell_angle_alpha 90
_cell_angle_beta 90
_cell_angle_gamma 90
_cell_formula_units_Z 2
loop_
_atom_type_symbol
_atom_type_radius_bond
C 0.68
H 0.23
N 0.68
loop_
_atom_site_label
_atom_site_type_symbol
_atom_site_fract_x
_atom_site_fract_y
_atom_site_fract_z
N1 N 0.6228(2) 0.6228(2) 0.6228(2)
C1 C 0.7380(4) 0.500000(8) 0.500000(8)
H1 H 0.81780 0.57990 0.42010
C1B C 0.5000(4) 0.500000(8) 0.738000(8)
H1B H 0.57990 0.42010 0.81780
C1D C 0.5000(4) 0.738000(8) 0.500000(8)
H1D H 0.42010 0.81780 0.57990
N1F N 0.6228(2) 0.3772(2) 0.3772(2)
C1F C 0.5000(4) 0.262000(8) 0.500000(8)
H1F H 0.57990 0.18220 0.57990
C1H C 0.5000(4) 0.500000(8) 0.262000(8)
H1H H 0.42010 0.42010 0.18220
N1L N 0.3772(2) 0.3772(2) 0.6228(2)
C1L C 0.2620(4) 0.500000(8) 0.500000(8)
H1L H 0.18220 0.42010 0.42010
N1N N 0.3772(2) 0.6228(2) 0.3772(2)
H1N H 0.57990 0.81780 0.42010
H1P H 0.18220 0.57990 0.57990
H1R H 0.42010 0.57990 0.81780
H1X H 0.57990 0.57990 0.18220
H1FA H 0.81780 0.42010 0.57990
H1LA H 0.42010 0.18220 0.42010
#END

data_CSD_CIF_HXMTAM54
_audit_creation_date 2020-12-08
_audit_creation_method CSD-ConQuest-V1
_database_code_CSD HXMTAM54
_database_code_depnum_ccdc_archive 'CCDC 2008839'
_chemical_formula_sum 'C6 H12 N4'
_chemical_formula_moiety
;
C6 H12 N4
;
_journal_coeditor_code "kc5114"
_journal_coden_Cambridge 228
_journal_volume 53
_journal_year 2020
_journal_page_first 1519
_journal_name_full 'J.Appl.Crystallogr. '
loop_
_publ_author_name
"C.J.McMonagle"
"D.R.Allan"
"M.R.Warren"
"K.V.Kamenev"
"G.F.Turner"
"S.A.Moggach"
_chemical_name_systematic
;
hexamethylenetetramine
;
_chemical_name_common
;
Methenamine; DrugBank: DB06799
;
_cell_volume    345.446
_exptl_crystal_colour 'colorless'
_exptl_crystal_density_diffrn 1.348
_exptl_crystal_description 'block'
_diffrn_ambient_temperature 297
_diffrn_ambient_pressure 40000.0
_diffrn_radiation_probe x-ray
_diffrn_source synchrotron
#These two values have been output from a single CSD field.
_refine_ls_R_factor_gt 0.0396
_refine_ls_wR_factor_gt 0.0396
_symmetry_cell_setting cubic
_symmetry_space_group_name_H-M 'I -4 3 m'
_symmetry_Int_Tables_number 217
loop_
_symmetry_equiv_pos_site_id
_symmetry_equiv_pos_as_xyz
1 x,y,z
2 1/2+x,1/2+y,1/2+z
3 y,z,x
4 1/2+y,1/2+z,1/2+x
5 z,x,y
6 1/2+z,1/2+x,1/2+y
7 y,-x,-z
8 1/2+y,1/2-x,1/2-z
9 z,-y,-x
10 1/2+z,1/2-y,1/2-x
11 x,-z,-y
12 1/2+x,1/2-z,1/2-y
13 -x,-y,z
14 1/2-x,1/2-y,1/2+z
15 -z,x,-y
16 1/2-z,1/2+x,1/2-y
17 -x,y,-z
18 1/2-x,1/2+y,1/2-z
19 -y,-z,x
20 1/2-y,1/2-z,1/2+x
21 -z,-x,y
22 1/2-z,1/2-x,1/2+y
23 -y,x,-z
24 1/2-y,1/2+x,1/2-z
25 -z,y,-x
26 1/2-z,1/2+y,1/2-x
27 -x,z,-y
28 1/2-x,1/2+z,1/2-y
29 -y,z,-x
30 1/2-y,1/2+z,1/2-x
31 z,y,x
32 1/2+z,1/2+y,1/2+x
33 x,z,y
34 1/2+x,1/2+z,1/2+y
35 y,x,z
36 1/2+y,1/2+x,1/2+z
37 y,-z,-x
38 1/2+y,1/2-z,1/2-x
39 -y,-x,z
40 1/2-y,1/2-x,1/2+z
41 -z,-y,x
42 1/2-z,1/2-y,1/2+x
43 -x,-z,y
44 1/2-x,1/2-z,1/2+y
45 x,-y,-z
46 1/2+x,1/2-y,1/2-z
47 z,-x,-y
48 1/2+z,1/2-x,1/2-y
_cell_length_a 7.0166(3)
_cell_length_b 7.0166(3)
_cell_length_c 7.0166(3)
_cell_angle_alpha 90
_cell_angle_beta 90
_cell_angle_gamma 90
_cell_formula_units_Z 2
loop_
_atom_type_symbol
_atom_type_radius_bond
C 0.68
H 0.23
N 0.68
loop_
_atom_site_label
_atom_site_type_symbol
_atom_site_fract_x
_atom_site_fract_y
_atom_site_fract_z
N1 N 0.62268(19) 0.62268(19) 0.62268(19)
C1 C 0.7382(3) 0.500000(8) 0.500000(8)
H1 H 0.81800 0.57980 0.42020
C1B C 0.5000(3) 0.500000(8) 0.738200(8)
H1B H 0.57980 0.42020 0.81800
C1D C 0.5000(3) 0.738200(8) 0.500000(8)
H1D H 0.42020 0.81800 0.57980
N1F N 0.62268(19) 0.37732(19) 0.37732(19)
C1F C 0.5000(3) 0.261800(8) 0.500000(8)
H1F H 0.57980 0.18200 0.57980
C1H C 0.5000(3) 0.500000(8) 0.261800(8)
H1H H 0.42020 0.42020 0.18200
N1L N 0.37732(19) 0.37732(19) 0.62268(19)
C1L C 0.2618(3) 0.500000(8) 0.500000(8)
H1L H 0.18200 0.42020 0.42020
N1N N 0.37732(19) 0.62268(19) 0.37732(19)
H1N H 0.57980 0.81800 0.42020
H1P H 0.18200 0.57980 0.57980
H1R H 0.42020 0.57980 0.81800
H1X H 0.57980 0.57980 0.18200
H1FA H 0.81800 0.42020 0.57980
H1LA H 0.42020 0.18200 0.42020
#END

data_CSD_CIF_HXMTAM55
_audit_creation_date 2020-12-08
_audit_creation_method CSD-ConQuest-V1
_database_code_CSD HXMTAM55
_database_code_depnum_ccdc_archive 'CCDC 2008840'
_chemical_formula_sum 'C6 H12 N4'
_chemical_formula_moiety
;
C6 H12 N4
;
_journal_coeditor_code "kc5114"
_journal_coden_Cambridge 228
_journal_volume 53
_journal_year 2020
_journal_page_first 1519
_journal_name_full 'J.Appl.Crystallogr. '
loop_
_publ_author_name
"C.J.McMonagle"
"D.R.Allan"
"M.R.Warren"
"K.V.Kamenev"
"G.F.Turner"
"S.A.Moggach"
_chemical_name_systematic
;
hexamethylenetetramine
;
_chemical_name_common
;
Methenamine; DrugBank: DB06799
;
_cell_volume    346.229
_exptl_crystal_colour 'colorless'
_exptl_crystal_density_diffrn 1.345
_exptl_crystal_description 'block'
_diffrn_ambient_temperature 297
_diffrn_ambient_pressure 20000.0
_diffrn_radiation_probe x-ray
_diffrn_source synchrotron
#These two values have been output from a single CSD field.
_refine_ls_R_factor_gt 0.0439
_refine_ls_wR_factor_gt 0.0439
_symmetry_cell_setting cubic
_symmetry_space_group_name_H-M 'I -4 3 m'
_symmetry_Int_Tables_number 217
loop_
_symmetry_equiv_pos_site_id
_symmetry_equiv_pos_as_xyz
1 x,y,z
2 1/2+x,1/2+y,1/2+z
3 y,z,x
4 1/2+y,1/2+z,1/2+x
5 z,x,y
6 1/2+z,1/2+x,1/2+y
7 y,-x,-z
8 1/2+y,1/2-x,1/2-z
9 z,-y,-x
10 1/2+z,1/2-y,1/2-x
11 x,-z,-y
12 1/2+x,1/2-z,1/2-y
13 -x,-y,z
14 1/2-x,1/2-y,1/2+z
15 -z,x,-y
16 1/2-z,1/2+x,1/2-y
17 -x,y,-z
18 1/2-x,1/2+y,1/2-z
19 -y,-z,x
20 1/2-y,1/2-z,1/2+x
21 -z,-x,y
22 1/2-z,1/2-x,1/2+y
23 -y,x,-z
24 1/2-y,1/2+x,1/2-z
25 -z,y,-x
26 1/2-z,1/2+y,1/2-x
27 -x,z,-y
28 1/2-x,1/2+z,1/2-y
29 -y,z,-x
30 1/2-y,1/2+z,1/2-x
31 z,y,x
32 1/2+z,1/2+y,1/2+x
33 x,z,y
34 1/2+x,1/2+z,1/2+y
35 y,x,z
36 1/2+y,1/2+x,1/2+z
37 y,-z,-x
38 1/2+y,1/2-z,1/2-x
39 -y,-x,z
40 1/2-y,1/2-x,1/2+z
41 -z,-y,x
42 1/2-z,1/2-y,1/2+x
43 -x,-z,y
44 1/2-x,1/2-z,1/2+y
45 x,-y,-z
46 1/2+x,1/2-y,1/2-z
47 z,-x,-y
48 1/2+z,1/2-x,1/2-y
_cell_length_a 7.0219(3)
_cell_length_b 7.0219(3)
_cell_length_c 7.0219(3)
_cell_angle_alpha 90
_cell_angle_beta 90
_cell_angle_gamma 90
_cell_formula_units_Z 2
loop_
_atom_type_symbol
_atom_type_radius_bond
C 0.68
H 0.23
N 0.68
loop_
_atom_site_label
_atom_site_type_symbol
_atom_site_fract_x
_atom_site_fract_y
_atom_site_fract_z
N1 N 0.6225(2) 0.6225(2) 0.6225(2)
C1 C 0.7377(3) 0.500000(8) 0.500000(8)
H1 H 0.81750 0.42020 0.57980
C1B C 0.5000(3) 0.500000(8) 0.737700(8)
H1B H 0.42020 0.57980 0.81750
C1D C 0.5000(3) 0.737700(8) 0.500000(8)
H1D H 0.57980 0.81750 0.42020
N1F N 0.6225(2) 0.3775(2) 0.3775(2)
C1F C 0.5000(3) 0.262300(8) 0.500000(8)
H1F H 0.42020 0.18250 0.42020
C1H C 0.5000(3) 0.500000(8) 0.262300(8)
H1H H 0.57980 0.57980 0.18250
N1L N 0.3775(2) 0.3775(2) 0.6225(2)
C1L C 0.2623(3) 0.500000(8) 0.500000(8)
H1L H 0.18250 0.57980 0.57980
N1N N 0.3775(2) 0.6225(2) 0.3775(2)
H1N H 0.42020 0.81750 0.57980
H1P H 0.18250 0.42020 0.42020
H1R H 0.57980 0.42020 0.81750
H1X H 0.42020 0.42020 0.18250
H1FA H 0.81750 0.57980 0.42020
H1LA H 0.57980 0.18250 0.57980
#END

data_CSD_CIF_HXMTAM56
_audit_creation_date 2020-12-08
_audit_creation_method CSD-ConQuest-V1
_database_code_CSD HXMTAM56
_database_code_depnum_ccdc_archive 'CCDC 2008841'
_chemical_formula_sum 'C6 H12 N4'
_chemical_formula_moiety
;
C6 H12 N4
;
_journal_coeditor_code "kc5114"
_journal_coden_Cambridge 228
_journal_volume 53
_journal_year 2020
_journal_page_first 1519
_journal_name_full 'J.Appl.Crystallogr. '
loop_
_publ_author_name
"C.J.McMonagle"
"D.R.Allan"
"M.R.Warren"
"K.V.Kamenev"
"G.F.Turner"
"S.A.Moggach"
_chemical_name_systematic
;
hexamethylenetetramine
;
_chemical_name_common
;
Methenamine; DrugBank: DB06799
;
_cell_volume    346.659
_exptl_crystal_colour 'colorless'
_exptl_crystal_density_diffrn 1.343
_exptl_crystal_description 'block'
_diffrn_ambient_temperature 297
_diffrn_ambient_pressure 10000.0
_diffrn_radiation_probe x-ray
_diffrn_source synchrotron
#These two values have been output from a single CSD field.
_refine_ls_R_factor_gt 0.0388
_refine_ls_wR_factor_gt 0.0388
_symmetry_cell_setting cubic
_symmetry_space_group_name_H-M 'I -4 3 m'
_symmetry_Int_Tables_number 217
loop_
_symmetry_equiv_pos_site_id
_symmetry_equiv_pos_as_xyz
1 x,y,z
2 1/2+x,1/2+y,1/2+z
3 y,z,x
4 1/2+y,1/2+z,1/2+x
5 z,x,y
6 1/2+z,1/2+x,1/2+y
7 y,-x,-z
8 1/2+y,1/2-x,1/2-z
9 z,-y,-x
10 1/2+z,1/2-y,1/2-x
11 x,-z,-y
12 1/2+x,1/2-z,1/2-y
13 -x,-y,z
14 1/2-x,1/2-y,1/2+z
15 -z,x,-y
16 1/2-z,1/2+x,1/2-y
17 -x,y,-z
18 1/2-x,1/2+y,1/2-z
19 -y,-z,x
20 1/2-y,1/2-z,1/2+x
21 -z,-x,y
22 1/2-z,1/2-x,1/2+y
23 -y,x,-z
24 1/2-y,1/2+x,1/2-z
25 -z,y,-x
26 1/2-z,1/2+y,1/2-x
27 -x,z,-y
28 1/2-x,1/2+z,1/2-y
29 -y,z,-x
30 1/2-y,1/2+z,1/2-x
31 z,y,x
32 1/2+z,1/2+y,1/2+x
33 x,z,y
34 1/2+x,1/2+z,1/2+y
35 y,x,z
36 1/2+y,1/2+x,1/2+z
37 y,-z,-x
38 1/2+y,1/2-z,1/2-x
39 -y,-x,z
40 1/2-y,1/2-x,1/2+z
41 -z,-y,x
42 1/2-z,1/2-y,1/2+x
43 -x,-z,y
44 1/2-x,1/2-z,1/2+y
45 x,-y,-z
46 1/2+x,1/2-y,1/2-z
47 z,-x,-y
48 1/2+z,1/2-x,1/2-y
_cell_length_a 7.0248(3)
_cell_length_b 7.0248(3)
_cell_length_c 7.0248(3)
_cell_angle_alpha 90
_cell_angle_beta 90
_cell_angle_gamma 90
_cell_formula_units_Z 2
loop_
_atom_type_symbol
_atom_type_radius_bond
C 0.68
H 0.23
N 0.68
loop_
_atom_site_label
_atom_site_type_symbol
_atom_site_fract_x
_atom_site_fract_y
_atom_site_fract_z
N1 N 0.6224(2) 0.6224(2) 0.6224(2)
C1 C 0.7377(3) 0.500000(8) 0.500000(8)
H1 H 0.81740 0.42030 0.57970
C1B C 0.5000(3) 0.500000(8) 0.737700(8)
H1B H 0.42030 0.57970 0.81740
C1D C 0.5000(3) 0.737700(8) 0.500000(8)
H1D H 0.57970 0.81740 0.42030
N1F N 0.6224(2) 0.3776(2) 0.3776(2)
C1F C 0.5000(3) 0.262300(8) 0.500000(8)
H1F H 0.42030 0.18260 0.42030
C1H C 0.5000(3) 0.500000(8) 0.262300(8)
H1H H 0.57970 0.57970 0.18260
N1L N 0.3776(2) 0.3776(2) 0.6224(2)
C1L C 0.2623(3) 0.500000(8) 0.500000(8)
H1L H 0.18260 0.57970 0.57970
N1N N 0.3776(2) 0.6224(2) 0.3776(2)
H1N H 0.42030 0.81740 0.57970
H1P H 0.18260 0.42030 0.42030
H1R H 0.57970 0.42030 0.81740
H1X H 0.42030 0.42030 0.18260
H1FA H 0.81740 0.57970 0.42030
H1LA H 0.57970 0.18260 0.57970
#END

data_CSD_CIF_HXMTAM57
_audit_creation_date 2020-12-08
_audit_creation_method CSD-ConQuest-V1
_database_code_CSD HXMTAM57
_database_code_depnum_ccdc_archive 'CCDC 2008842'
_chemical_formula_sum 'C6 H12 N4'
_chemical_formula_moiety
;
C6 H12 N4
;
_journal_coeditor_code "kc5114"
_journal_coden_Cambridge 228
_journal_volume 53
_journal_year 2020
_journal_page_first 1519
_journal_name_full 'J.Appl.Crystallogr. '
loop_
_publ_author_name
"C.J.McMonagle"
"D.R.Allan"
"M.R.Warren"
"K.V.Kamenev"
"G.F.Turner"
"S.A.Moggach"
_chemical_name_systematic
;
hexamethylenetetramine
;
_chemical_name_common
;
Methenamine; DrugBank: DB06799
;
_cell_volume    347.103
_exptl_crystal_colour 'colorless'
_exptl_crystal_density_diffrn 1.341
_exptl_crystal_description 'block'
_diffrn_ambient_temperature 297
_diffrn_radiation_probe x-ray
_diffrn_source synchrotron
#These two values have been output from a single CSD field.
_refine_ls_R_factor_gt 0.0388
_refine_ls_wR_factor_gt 0.0388
_symmetry_cell_setting cubic
_symmetry_space_group_name_H-M 'I -4 3 m'
_symmetry_Int_Tables_number 217
loop_
_symmetry_equiv_pos_site_id
_symmetry_equiv_pos_as_xyz
1 x,y,z
2 1/2+x,1/2+y,1/2+z
3 y,z,x
4 1/2+y,1/2+z,1/2+x
5 z,x,y
6 1/2+z,1/2+x,1/2+y
7 y,-x,-z
8 1/2+y,1/2-x,1/2-z
9 z,-y,-x
10 1/2+z,1/2-y,1/2-x
11 x,-z,-y
12 1/2+x,1/2-z,1/2-y
13 -x,-y,z
14 1/2-x,1/2-y,1/2+z
15 -z,x,-y
16 1/2-z,1/2+x,1/2-y
17 -x,y,-z
18 1/2-x,1/2+y,1/2-z
19 -y,-z,x
20 1/2-y,1/2-z,1/2+x
21 -z,-x,y
22 1/2-z,1/2-x,1/2+y
23 -y,x,-z
24 1/2-y,1/2+x,1/2-z
25 -z,y,-x
26 1/2-z,1/2+y,1/2-x
27 -x,z,-y
28 1/2-x,1/2+z,1/2-y
29 -y,z,-x
30 1/2-y,1/2+z,1/2-x
31 z,y,x
32 1/2+z,1/2+y,1/2+x
33 x,z,y
34 1/2+x,1/2+z,1/2+y
35 y,x,z
36 1/2+y,1/2+x,1/2+z
37 y,-z,-x
38 1/2+y,1/2-z,1/2-x
39 -y,-x,z
40 1/2-y,1/2-x,1/2+z
41 -z,-y,x
42 1/2-z,1/2-y,1/2+x
43 -x,-z,y
44 1/2-x,1/2-z,1/2+y
45 x,-y,-z
46 1/2+x,1/2-y,1/2-z
47 z,-x,-y
48 1/2+z,1/2-x,1/2-y
_cell_length_a 7.0278(4)
_cell_length_b 7.0278(4)
_cell_length_c 7.0278(4)
_cell_angle_alpha 90
_cell_angle_beta 90
_cell_angle_gamma 90
_cell_formula_units_Z 2
loop_
_atom_type_symbol
_atom_type_radius_bond
C 0.68
H 0.23
N 0.68
loop_
_atom_site_label
_atom_site_type_symbol
_atom_site_fract_x
_atom_site_fract_y
_atom_site_fract_z
N1 N 0.6223(2) 0.6223(2) 0.6223(2)
C1 C 0.7374(4) 0.500000(8) 0.500000(8)
H1 H 0.81710 0.57970 0.42030
C1B C 0.5000(4) 0.500000(8) 0.737400(8)
H1B H 0.57970 0.42030 0.81710
C1D C 0.5000(4) 0.737400(8) 0.500000(8)
H1D H 0.42030 0.81710 0.57970
N1F N 0.6223(2) 0.3777(2) 0.3777(2)
C1F C 0.5000(4) 0.262600(8) 0.500000(8)
H1F H 0.57970 0.18290 0.57970
C1H C 0.5000(4) 0.500000(8) 0.262600(8)
H1H H 0.42030 0.42030 0.18290
N1L N 0.3777(2) 0.3777(2) 0.6223(2)
C1L C 0.2626(4) 0.500000(8) 0.500000(8)
H1L H 0.18290 0.42030 0.42030
N1N N 0.3777(2) 0.6223(2) 0.3777(2)
H1N H 0.57970 0.81710 0.42030
H1P H 0.18290 0.57970 0.57970
H1R H 0.42030 0.57970 0.81710
H1X H 0.57970 0.57970 0.18290
H1FA H 0.81710 0.42030 0.57970
H1LA H 0.42030 0.18290 0.42030
#END

data_CSD_CIF_KELREY
_audit_creation_date 2000-06-26
_audit_creation_method CSD-ConQuest-V1
_database_code_CSD KELREY
_database_code_depnum_ccdc_archive 'CCDC 116602'
_chemical_formula_sum 'C12 H36 Cl4 Ti4'
_chemical_formula_moiety
;
C12 H36 Cl4 Ti4
;
_journal_coden_Cambridge 1220
_journal_volume 5
_journal_year 1999
_journal_page_first 3573
_journal_name_full 'Chem.-Eur.J. '
loop_
_publ_author_name
"S.Kleinhenz"
"K.Seppelt"
_chemical_name_systematic
;
tetrakis(\m~3~-Chloro)-tetrakis(trimethyl-titanium)
;
_cell_volume   1166.744
_exptl_crystal_colour 'red'
_exptl_crystal_density_diffrn 1.463
_exptl_crystal_description 'cube'
_diffrn_ambient_temperature 130
#These two values have been output from a single CSD field.
_refine_ls_R_factor_gt 0.0173
_refine_ls_wR_factor_gt 0.0173
_symmetry_cell_setting cubic
_symmetry_space_group_name_H-M 'I -4 3 m'
_symmetry_Int_Tables_number 217
loop_
_symmetry_equiv_pos_site_id
_symmetry_equiv_pos_as_xyz
1 x,y,z
2 x,-y,-z
3 -x,y,-z
4 -x,-y,z
5 z,x,y
6 z,-x,-y
7 -z,x,-y
8 -z,-x,y
9 y,z,x
10 y,-z,-x
11 -y,z,-x
12 -y,-z,x
13 x,z,y
14 x,-z,-y
15 -x,z,-y
16 -x,-z,y
17 y,x,z
18 y,-x,-z
19 -y,x,-z
20 -y,-x,z
21 z,y,x
22 z,-y,-x
23 -z,y,-x
24 -z,-y,x
25 1/2+x,1/2+y,1/2+z
26 1/2+x,1/2-y,1/2-z
27 1/2-x,1/2+y,1/2-z
28 1/2-x,1/2-y,1/2+z
29 1/2+z,1/2+x,1/2+y
30 1/2+z,1/2-x,1/2-y
31 1/2-z,1/2+x,1/2-y
32 1/2-z,1/2-x,1/2+y
33 1/2+y,1/2+z,1/2+x
34 1/2+y,1/2-z,1/2-x
35 1/2-y,1/2+z,1/2-x
36 1/2-y,1/2-z,1/2+x
37 1/2+x,1/2+z,1/2+y
38 1/2+x,1/2-z,1/2-y
39 1/2-x,1/2+z,1/2-y
40 1/2-x,1/2-z,1/2+y
41 1/2+y,1/2+x,1/2+z
42 1/2+y,1/2-x,1/2-z
43 1/2-y,1/2+x,1/2-z
44 1/2-y,1/2-x,1/2+z
45 1/2+z,1/2+y,1/2+x
46 1/2+z,1/2-y,1/2-x
47 1/2-z,1/2+y,1/2-x
48 1/2-z,1/2-y,1/2+x
_cell_length_a 10.5275(10)
_cell_length_b 10.5275(10)
_cell_length_c 10.5275(10)
_cell_angle_alpha 90
_cell_angle_beta 90
_cell_angle_gamma 90
_cell_formula_units_Z 2
loop_
_atom_type_symbol
_atom_type_radius_bond
C 0.68
H 0.23
Cl 0.99
Ti 1.47
loop_
_atom_site_label
_atom_site_type_symbol
_atom_site_fract_x
_atom_site_fract_y
_atom_site_fract_z
Ti1 Ti 0.13828(2) 0.13828(2) 0.13828(2)
C1 C 0.12379(13) 0.33292(14) 0.12379(13)
H1 H 0.1815(17) 0.367(3) 0.1815(17)
H2 H 0.143(2) 0.360(2) 0.0523(15)
Cl1 Cl 0.11130(3) -0.11130(3) 0.11130(3)
H2T H 0.0523(20) 0.360(2) 0.1430(15)
C1D C 0.12379(13) 0.12379(14) 0.33292(13)
H1D H 0.1815(17) 0.1815(30) 0.3670(17)
H2D H 0.0523(20) 0.143(2) 0.3600(15)
H2L H 0.143(2) 0.0523(20) 0.3600(15)
C1H C 0.33292(13) 0.12379(14) 0.12379(13)
H1H H 0.3670(17) 0.1815(30) 0.1815(17)
H2H H 0.360(2) 0.0523(20) 0.1430(15)
H2P H 0.360(2) 0.143(2) 0.0523(15)
Ti1A Ti 0.13828(2) -0.13828(2) -0.13828(2)
C1A C 0.12379(13) -0.33292(14) -0.12379(13)
H1A H 0.1815(17) -0.367(3) -0.1815(17)
H2A H 0.143(2) -0.360(2) -0.0523(15)
H2U H 0.0523(20) -0.360(2) -0.1430(15)
C1E C 0.12379(13) -0.12379(14) -0.33292(13)
H1E H 0.1815(17) -0.1815(30) -0.3670(17)
H2E H 0.0523(20) -0.143(2) -0.3600(15)
H2M H 0.143(2) -0.0523(20) -0.3600(15)
C1I C 0.33292(13) -0.12379(14) -0.12379(13)
H1I H 0.3670(17) -0.1815(30) -0.1815(17)
H2I H 0.360(2) -0.0523(20) -0.1430(15)
H2Q H 0.360(2) -0.143(2) -0.0523(15)
Cl1A Cl 0.11130(3) 0.11130(3) -0.11130(3)
Cl1C Cl -0.11130(3) 0.11130(3) 0.11130(3)
Ti1C Ti -0.13828(2) -0.13828(2) 0.13828(2)
C1C C -0.12379(13) -0.33292(14) 0.12379(13)
H1C H -0.1815(17) -0.367(3) 0.1815(17)
H2C H -0.143(2) -0.360(2) 0.0523(15)
H2W H -0.0523(20) -0.360(2) 0.1430(15)
C1G C -0.12379(13) -0.12379(14) 0.33292(13)
H1G H -0.1815(17) -0.1815(30) 0.3670(17)
H2G H -0.0523(20) -0.143(2) 0.3600(15)
H2O H -0.143(2) -0.0523(20) 0.3600(15)
C1K C -0.33292(13) -0.12379(14) 0.12379(13)
H1K H -0.3670(17) -0.1815(30) 0.1815(17)
H2K H -0.360(2) -0.0523(20) 0.1430(15)
H2S H -0.360(2) -0.143(2) 0.0523(15)
Cl1B Cl -0.11130(3) -0.11130(3) -0.11130(3)
Ti1B Ti -0.13828(2) 0.13828(2) -0.13828(2)
C1B C -0.12379(13) 0.33292(14) -0.12379(13)
H1B H -0.1815(17) 0.367(3) -0.1815(17)
H2B H -0.143(2) 0.360(2) -0.0523(15)
H2V H -0.0523(20) 0.360(2) -0.1430(15)
C1F C -0.12379(13) 0.12379(14) -0.33292(13)
H1F H -0.1815(17) 0.1815(30) -0.3670(17)
H2F H -0.0523(20) 0.143(2) -0.3600(15)
H2N H -0.143(2) 0.0523(20) -0.3600(15)
C1J C -0.33292(13) 0.12379(14) -0.12379(13)
H1J H -0.3670(17) 0.1815(30) -0.1815(17)
H2J H -0.360(2) 0.0523(20) -0.1430(15)
H2R H -0.360(2) 0.143(2) -0.0523(15)
#END

data_CSD_CIF_MAGXIF
_audit_creation_date 2020-12-08
_audit_creation_method CSD-ConQuest-V1
_database_code_CSD MAGXIF
_database_code_depnum_ccdc_archive 'CCDC 2008834'
_chemical_formula_sum 'C6 H12 N4'
_chemical_formula_moiety
;
C6 H12 N4
;
_journal_coeditor_code "kc5114"
_journal_coden_Cambridge 228
_journal_volume 53
_journal_year 2020
_journal_page_first 1519
_journal_name_full 'J.Appl.Crystallogr. '
loop_
_publ_author_name
"C.J.McMonagle"
"D.R.Allan"
"M.R.Warren"
"K.V.Kamenev"
"G.F.Turner"
"S.A.Moggach"
_chemical_name_systematic
;
hexamethylenetetramine
;
_chemical_name_common
;
Methenamine; DrugBank: DB06799
;
_cell_volume    344.074
_exptl_crystal_colour 'colorless'
_exptl_crystal_density_diffrn 1.353
_exptl_crystal_description 'block'
_diffrn_ambient_temperature 297
_diffrn_ambient_pressure 80000.0
_diffrn_radiation_probe x-ray
_diffrn_source synchrotron
#These two values have been output from a single CSD field.
_refine_ls_R_factor_gt 0.0416
_refine_ls_wR_factor_gt 0.0416
_symmetry_cell_setting cubic
_symmetry_space_group_name_H-M 'I -4 3 m'
_symmetry_Int_Tables_number 217
loop_
_symmetry_equiv_pos_site_id
_symmetry_equiv_pos_as_xyz
1 x,y,z
2 1/2+x,1/2+y,1/2+z
3 y,z,x
4 1/2+y,1/2+z,1/2+x
5 z,x,y
6 1/2+z,1/2+x,1/2+y
7 y,-x,-z
8 1/2+y,1/2-x,1/2-z
9 z,-y,-x
10 1/2+z,1/2-y,1/2-x
11 x,-z,-y
12 1/2+x,1/2-z,1/2-y
13 -x,-y,z
14 1/2-x,1/2-y,1/2+z
15 -z,x,-y
16 1/2-z,1/2+x,1/2-y
17 -x,y,-z
18 1/2-x,1/2+y,1/2-z
19 -y,-z,x
20 1/2-y,1/2-z,1/2+x
21 -z,-x,y
22 1/2-z,1/2-x,1/2+y
23 -y,x,-z
24 1/2-y,1/2+x,1/2-z
25 -z,y,-x
26 1/2-z,1/2+y,1/2-x
27 -x,z,-y
28 1/2-x,1/2+z,1/2-y
29 -y,z,-x
30 1/2-y,1/2+z,1/2-x
31 z,y,x
32 1/2+z,1/2+y,1/2+x
33 x,z,y
34 1/2+x,1/2+z,1/2+y
35 y,x,z
36 1/2+y,1/2+x,1/2+z
37 y,-z,-x
38 1/2+y,1/2-z,1/2-x
39 -y,-x,z
40 1/2-y,1/2-x,1/2+z
41 -z,-y,x
42 1/2-z,1/2-y,1/2+x
43 -x,-z,y
44 1/2-x,1/2-z,1/2+y
45 x,-y,-z
46 1/2+x,1/2-y,1/2-z
47 z,-x,-y
48 1/2+z,1/2-x,1/2-y
_cell_length_a 7.0073(3)
_cell_length_b 7.0073(3)
_cell_length_c 7.0073(3)
_cell_angle_alpha 90
_cell_angle_beta 90
_cell_angle_gamma 90
_cell_formula_units_Z 2
loop_
_atom_type_symbol
_atom_type_radius_bond
C 0.68
H 0.23
N 0.68
loop_
_atom_site_label
_atom_site_type_symbol
_atom_site_fract_x
_atom_site_fract_y
_atom_site_fract_z
N1 N 0.6230(3) 0.6230(3) 0.6230(3)
C1 C 0.7384(5) 0.500000(8) 0.500000(8)
H1 H 0.81830 0.57990 0.42010
C1B C 0.5000(5) 0.500000(8) 0.738400(8)
H1B H 0.57990 0.42010 0.81830
C1D C 0.5000(5) 0.738400(8) 0.500000(8)
H1D H 0.42010 0.81830 0.57990
N1F N 0.6230(3) 0.3770(3) 0.3770(3)
C1F C 0.5000(5) 0.261600(8) 0.500000(8)
H1F H 0.57990 0.18170 0.57990
C1H C 0.5000(5) 0.500000(8) 0.261600(8)
H1H H 0.42010 0.42010 0.18170
N1L N 0.3770(3) 0.3770(3) 0.6230(3)
C1L C 0.2616(5) 0.500000(8) 0.500000(8)
H1L H 0.18170 0.42010 0.42010
N1N N 0.3770(3) 0.6230(3) 0.3770(3)
H1N H 0.57990 0.81830 0.42010
H1P H 0.18170 0.57990 0.57990
H1R H 0.42010 0.57990 0.81830
H1X H 0.57990 0.57990 0.18170
H1FA H 0.81830 0.42010 0.57990
H1LA H 0.42010 0.18170 0.42010
#END

data_CSD_CIF_MESIAD
_audit_creation_date 1980-12-11
_audit_creation_method CSD-ConQuest-V1
_database_code_CSD MESIAD
_chemical_formula_sum 'C12 H36 As4 Si6'
_chemical_formula_moiety
;
C12 H36 As4 Si6
;
_journal_coden_Cambridge 644
_journal_volume 35
_journal_year 1980
_journal_page_first 789
_journal_name_full 'Z.Naturforsch.,B:Chem.Sci. '
loop_
_publ_author_name
"W.Honle"
"H.G.von Schnering"
_chemical_name_systematic
;
Dodecamethyl-hexasila-tetra-arsa-adamantane
;
_cell_volume   1324.477
_exptl_crystal_colour 'colorless'
_exptl_crystal_density_diffrn 1.626
_diffrn_ambient_temperature ?
_diffrn_special_details
;
The study was carried out at room temperature,in the range 283-303K

;
#These two values have been output from a single CSD field.
_refine_ls_R_factor_gt 0.038
_refine_ls_wR_factor_gt 0.038
_symmetry_cell_setting cubic
_symmetry_space_group_name_H-M 'I -4 3 m'
_symmetry_Int_Tables_number 217
loop_
_symmetry_equiv_pos_site_id
_symmetry_equiv_pos_as_xyz
1 x,y,z
2 1/2+x,1/2+y,1/2+z
3 z,x,y
4 y,z,x
5 1/2+z,1/2+x,1/2+y
6 1/2+y,1/2+z,1/2+x
7 -y,x,-z
8 1/2-y,1/2+x,1/2-z
9 -x,z,-y
10 -z,y,-x
11 1/2-x,1/2+z,1/2-y
12 1/2-z,1/2+y,1/2-x
13 x,-y,-z
14 1/2+x,1/2-y,1/2-z
15 z,-x,-y
16 y,-z,-x
17 1/2+z,1/2-x,1/2-y
18 1/2+y,1/2-z,1/2-x
19 -y,-x,z
20 1/2-y,1/2-x,1/2+z
21 -x,-z,y
22 -z,-y,x
23 1/2-x,1/2-z,1/2+y
24 1/2-z,1/2-y,1/2+x
25 -x,y,-z
26 1/2-x,1/2+y,1/2-z
27 -z,x,-y
28 -y,z,-x
29 1/2-z,1/2+x,1/2-y
30 1/2-y,1/2+z,1/2-x
31 y,x,z
32 1/2+y,1/2+x,1/2+z
33 x,z,y
34 z,y,x
35 1/2+x,1/2+z,1/2+y
36 1/2+z,1/2+y,1/2+x
37 -x,-y,z
38 1/2-x,1/2-y,1/2+z
39 -z,-x,y
40 -y,-z,x
41 1/2-z,1/2-x,1/2+y
42 1/2-y,1/2-z,1/2+x
43 y,-x,-z
44 1/2+y,1/2-x,1/2-z
45 x,-z,-y
46 z,-y,-x
47 1/2+x,1/2-z,1/2-y
48 1/2+z,1/2-y,1/2-x
_cell_length_a 10.982(2)
_cell_length_b 10.982(2)
_cell_length_c 10.982(2)
_cell_angle_alpha 90
_cell_angle_beta 90
_cell_angle_gamma 90
_cell_formula_units_Z 2
loop_
_atom_type_symbol
_atom_type_radius_bond
C 0.68
H 0.23
As 1.21
Si 1.20
loop_
_atom_site_label
_atom_site_type_symbol
_atom_site_fract_x
_atom_site_fract_y
_atom_site_fract_z
As1 As 0.36825 0.36825 0.36825
Si1 Si 0.26280 0.50000 0.50000
C1 C 0.16080 0.40440 0.59560
H1 H 0.21940 0.35950 0.64050
H2 H 0.11630 0.46330 0.66340
Si1B Si 0.50000 0.26280 0.50000
Si1C Si 0.50000 0.50000 0.26280
As1L As 0.36825 0.63175 0.63175
C1L C 0.16080 0.59560 0.40440
H2RA H 0.11630 0.33660 0.53670
As1F As 0.63175 0.36825 0.63175
C1B C 0.59560 0.16080 0.40440
C1Z C 0.40440 0.16080 0.59560
As1R As 0.63175 0.63175 0.36825
C1C C 0.40440 0.59560 0.16080
C1GA C 0.59560 0.40440 0.16080
Si1I Si 0.50000 0.50000 0.73720
Si1N Si 0.50000 0.73720 0.50000
H1L H 0.21940 0.64050 0.35950
H2L H 0.11630 0.53670 0.33660
H2FA H 0.11630 0.66340 0.46330
Si1H Si 0.73720 0.50000 0.50000
H1B H 0.64050 0.21940 0.35950
H2B H 0.66340 0.11630 0.46330
H2F H 0.53670 0.11630 0.33660
H1Z H 0.35950 0.21940 0.64050
H2Z H 0.33660 0.11630 0.53670
H2DA H 0.46330 0.11630 0.66340
H1C H 0.35950 0.64050 0.21940
H2C H 0.46330 0.66340 0.11630
H2U H 0.33660 0.53670 0.11630
H1GA H 0.64050 0.35950 0.21940
H2GA H 0.66340 0.46330 0.11630
H2MA H 0.53670 0.33660 0.11630
C1I C 0.40440 0.40440 0.83920
C1AA C 0.59560 0.59560 0.83920
C1N C 0.59560 0.83920 0.59560
C1LA C 0.40440 0.83920 0.40440
C1H C 0.83920 0.59560 0.59560
C1T C 0.83920 0.40440 0.40440
H1I H 0.35950 0.35950 0.78060
H2I H 0.33660 0.46330 0.88370
H2O H 0.46330 0.33660 0.88370
H1AA H 0.64050 0.64050 0.78060
H2AA H 0.53670 0.66340 0.88370
H2SA H 0.66340 0.53670 0.88370
H1N H 0.64050 0.78060 0.64050
H2N H 0.66340 0.88370 0.53670
H2R H 0.53670 0.88370 0.66340
H1LA H 0.35950 0.78060 0.35950
H2LA H 0.33660 0.88370 0.46330
H2PA H 0.46330 0.88370 0.33660
H1H H 0.78060 0.64050 0.64050
H2H H 0.88370 0.66340 0.53670
H2JA H 0.88370 0.53670 0.66340
H1T H 0.78060 0.35950 0.35950
H2T H 0.88370 0.33660 0.46330
H2X H 0.88370 0.46330 0.33660
#END

data_CSD_CIF_METHLI01
_audit_creation_date 1990-09-30
_audit_creation_method CSD-ConQuest-V1
_database_code_CSD METHLI01
_database_code_depnum_ccdc_archive 'CCDC 1211454'
_chemical_formula_sum 'C4 D12 Li4'
_chemical_formula_moiety
;
4(C1 D3 1-),4(Li1 1+)
;
_journal_coden_Cambridge 48
_journal_volume 123
_journal_year 1990
_journal_page_first 79
_journal_name_full 'Chem.Ber. '
loop_
_publ_author_name
"E.Weiss"
"T.Lambertsen"
"B.Schubert"
"J.K.Cockcroft"
"A.Wiedenmann"
_chemical_name_systematic
;
Tetra-lithium tetrakis(trideuteromethanide)
;
_cell_volume    359.850
_exptl_crystal_density_diffrn 0.921
_diffrn_ambient_temperature 1.5
#These two values have been output from a single CSD field.
_refine_ls_R_factor_gt 0.036
_refine_ls_wR_factor_gt 0.036
_symmetry_cell_setting cubic
_symmetry_space_group_name_H-M 'I -4 3 m'
_symmetry_Int_Tables_number 217
loop_
_symmetry_equiv_pos_site_id
_symmetry_equiv_pos_as_xyz
1 x,y,z
2 1/2+x,1/2+y,1/2+z
3 z,x,y
4 y,z,x
5 1/2+z,1/2+x,1/2+y
6 1/2+y,1/2+z,1/2+x
7 -y,x,-z
8 1/2-y,1/2+x,1/2-z
9 -x,z,-y
10 -z,y,-x
11 1/2-x,1/2+z,1/2-y
12 1/2-z,1/2+y,1/2-x
13 x,-y,-z
14 1/2+x,1/2-y,1/2-z
15 z,-x,-y
16 y,-z,-x
17 1/2+z,1/2-x,1/2-y
18 1/2+y,1/2-z,1/2-x
19 -y,-x,z
20 1/2-y,1/2-x,1/2+z
21 -x,-z,y
22 -z,-y,x
23 1/2-x,1/2-z,1/2+y
24 1/2-z,1/2-y,1/2+x
25 -x,y,-z
26 1/2-x,1/2+y,1/2-z
27 -z,x,-y
28 -y,z,-x
29 1/2-z,1/2+x,1/2-y
30 1/2-y,1/2+z,1/2-x
31 y,x,z
32 1/2+y,1/2+x,1/2+z
33 x,z,y
34 z,y,x
35 1/2+x,1/2+z,1/2+y
36 1/2+z,1/2+y,1/2+x
37 -x,-y,z
38 1/2-x,1/2-y,1/2+z
39 -z,-x,y
40 -y,-z,x
41 1/2-z,1/2-x,1/2+y
42 1/2-y,1/2-z,1/2+x
43 y,-x,-z
44 1/2+y,1/2-x,1/2-z
45 x,-z,-y
46 z,-y,-x
47 1/2+x,1/2-z,1/2-y
48 1/2+z,1/2-y,1/2-x
_cell_length_a 7.1128(2)
_cell_length_b 7.1128(2)
_cell_length_c 7.1128(2)
_cell_angle_alpha 90
_cell_angle_beta 90
_cell_angle_gamma 90
_cell_formula_units_Z 2
loop_
_atom_type_symbol
_atom_type_radius_bond
C 0.68
D 0.23
Li 0.68
loop_
_atom_site_label
_atom_site_type_symbol
_atom_site_fract_x
_atom_site_fract_y
_atom_site_fract_z
Li1 Li 0.1287(9) 0.1287(9) 0.1287(9)
C1 C 0.3200(2) 0.3200(2) 0.3200(2)
D1 D 0.3467(1) 0.3467(1) 0.1741(3)
D1B D 0.1741(1) 0.3467(1) 0.3467(3)
D1C D 0.3467(1) 0.1741(1) 0.3467(3)
#END

data_CSD_CIF_METHLI02
_audit_creation_date 1990-09-30
_audit_creation_method CSD-ConQuest-V1
_database_code_CSD METHLI02
_database_code_depnum_ccdc_archive 'CCDC 1211455'
_chemical_formula_sum 'C4 D12 Li4'
_chemical_formula_moiety
;
4(C1 D3 1-),4(Li1 1+)
;
_journal_coden_Cambridge 48
_journal_volume 123
_journal_year 1990
_journal_page_first 79
_journal_name_full 'Chem.Ber. '
loop_
_publ_author_name
"E.Weiss"
"T.Lambertsen"
"B.Schubert"
"J.K.Cockcroft"
"A.Wiedenmann"
_chemical_name_systematic
;
Tetra-lithium tetrakis(trideuteromethanide)
;
_cell_volume    373.310
_exptl_crystal_density_diffrn 0.888
_diffrn_ambient_temperature ?
_diffrn_special_details
;
The study was carried out at room temperature,in the range 283-303K

;
#These two values have been output from a single CSD field.
_refine_ls_R_factor_gt 0.041
_refine_ls_wR_factor_gt 0.041
_symmetry_cell_setting cubic
_symmetry_space_group_name_H-M 'I -4 3 m'
_symmetry_Int_Tables_number 217
loop_
_symmetry_equiv_pos_site_id
_symmetry_equiv_pos_as_xyz
1 x,y,z
2 1/2+x,1/2+y,1/2+z
3 z,x,y
4 y,z,x
5 1/2+z,1/2+x,1/2+y
6 1/2+y,1/2+z,1/2+x
7 -y,x,-z
8 1/2-y,1/2+x,1/2-z
9 -x,z,-y
10 -z,y,-x
11 1/2-x,1/2+z,1/2-y
12 1/2-z,1/2+y,1/2-x
13 x,-y,-z
14 1/2+x,1/2-y,1/2-z
15 z,-x,-y
16 y,-z,-x
17 1/2+z,1/2-x,1/2-y
18 1/2+y,1/2-z,1/2-x
19 -y,-x,z
20 1/2-y,1/2-x,1/2+z
21 -x,-z,y
22 -z,-y,x
23 1/2-x,1/2-z,1/2+y
24 1/2-z,1/2-y,1/2+x
25 -x,y,-z
26 1/2-x,1/2+y,1/2-z
27 -z,x,-y
28 -y,z,-x
29 1/2-z,1/2+x,1/2-y
30 1/2-y,1/2+z,1/2-x
31 y,x,z
32 1/2+y,1/2+x,1/2+z
33 x,z,y
34 z,y,x
35 1/2+x,1/2+z,1/2+y
36 1/2+z,1/2+y,1/2+x
37 -x,-y,z
38 1/2-x,1/2-y,1/2+z
39 -z,-x,y
40 -y,-z,x
41 1/2-z,1/2-x,1/2+y
42 1/2-y,1/2-z,1/2+x
43 y,-x,-z
44 1/2+y,1/2-x,1/2-z
45 x,-z,-y
46 z,-y,-x
47 1/2+x,1/2-z,1/2-y
48 1/2+z,1/2-y,1/2-x
_cell_length_a 7.2004(6)
_cell_length_b 7.2004(6)
_cell_length_c 7.2004(6)
_cell_angle_alpha 90
_cell_angle_beta 90
_cell_angle_gamma 90
_cell_formula_units_Z 2
loop_
_atom_type_symbol
_atom_type_radius_bond
C 0.68
D 0.23
Li 0.68
loop_
_atom_site_label
_atom_site_type_symbol
_atom_site_fract_x
_atom_site_fract_y
_atom_site_fract_z
Li1 Li 0.1279(2) 0.1279(2) 0.1279(2)
C1 C 0.3276(7) 0.3276(7) 0.3276(7)
D1 D 0.3412(5) 0.3412(5) 0.1911(7)
D1B D 0.1911(5) 0.3412(5) 0.3412(7)
D1C D 0.3412(5) 0.1911(5) 0.3412(7)
#END

data_CSD_CIF_NENVUY
_audit_creation_date 2006-11-27
_audit_creation_method CSD-ConQuest-V1
_database_code_CSD NENVUY
_database_code_depnum_ccdc_archive 'CCDC 616009'
_chemical_formula_sum 'C12 H36 Ge8 N4'
_chemical_formula_moiety
;
C12 H36 Ge8 N4
;
_journal_coden_Cambridge 9
_journal_volume 45
_journal_year 2006
_journal_page_first 6706
_journal_name_full 'Inorg.Chem. '
loop_
_publ_author_name
"J.F.Eichler"
"O.Just"
"W.S.Rees Junior"
_chemical_name_systematic
;
tetrakis(\m~3~-Trimethylgermylamido)-tetra-germanium
;
_chemical_melting_point 538.15
_cell_volume   1437.999
_exptl_crystal_density_diffrn 1.887
_exptl_special_details
;
Melts with decomposition.

;
_diffrn_ambient_temperature 193
#These two values have been output from a single CSD field.
_refine_ls_R_factor_gt 0.0339
_refine_ls_wR_factor_gt 0.0339
_symmetry_cell_setting cubic
_symmetry_space_group_name_H-M 'I -4 3 m'
_symmetry_Int_Tables_number 217
loop_
_symmetry_equiv_pos_site_id
_symmetry_equiv_pos_as_xyz
1 x,y,z
2 -x,-y,z
3 -x,y,-z
4 x,-y,-z
5 z,x,y
6 z,-x,-y
7 -z,-x,y
8 -z,x,-y
9 y,z,x
10 -y,z,-x
11 y,-z,-x
12 -y,-z,x
13 y,x,z
14 -y,-x,z
15 y,-x,-z
16 -y,x,-z
17 x,z,y
18 -x,z,-y
19 -x,-z,y
20 x,-z,-y
21 z,y,x
22 z,-y,-x
23 -z,y,-x
24 -z,-y,x
25 1/2+x,1/2+y,1/2+z
26 1/2-x,1/2-y,1/2+z
27 1/2-x,1/2+y,1/2-z
28 1/2+x,1/2-y,1/2-z
29 1/2+z,1/2+x,1/2+y
30 1/2+z,1/2-x,1/2-y
31 1/2-z,1/2-x,1/2+y
32 1/2-z,1/2+x,1/2-y
33 1/2+y,1/2+z,1/2+x
34 1/2-y,1/2+z,1/2-x
35 1/2+y,1/2-z,1/2-x
36 1/2-y,1/2-z,1/2+x
37 1/2+y,1/2+x,1/2+z
38 1/2-y,1/2-x,1/2+z
39 1/2+y,1/2-x,1/2-z
40 1/2-y,1/2+x,1/2-z
41 1/2+x,1/2+z,1/2+y
42 1/2-x,1/2+z,1/2-y
43 1/2-x,1/2-z,1/2+y
44 1/2+x,1/2-z,1/2-y
45 1/2+z,1/2+y,1/2+x
46 1/2+z,1/2-y,1/2-x
47 1/2-z,1/2+y,1/2-x
48 1/2-z,1/2-y,1/2+x
_cell_length_a 11.2872(10)
_cell_length_b 11.2872(10)
_cell_length_c 11.2872(10)
_cell_angle_alpha 90
_cell_angle_beta 90
_cell_angle_gamma 90
_cell_formula_units_Z 2
loop_
_atom_type_symbol
_atom_type_radius_bond
C 0.68
H 0.23
Ge 1.17
N 0.68
loop_
_atom_site_label
_atom_site_type_symbol
_atom_site_fract_x
_atom_site_fract_y
_atom_site_fract_z
Ge1 Ge 0.40699(5) 0.40699(5) 0.40699(5)
Ge2 Ge 0.32041(5) 0.32041(5) 0.67959(5)
N1 N 0.4161(4) 0.4161(4) 0.5839(4)
C1 C 0.1578(6) 0.3593(5) 0.6407(5)
H1? H 0.35240 0.05710 0.14310
H2? H 0.39380 0.17690 0.19640
H3? H 0.36000 0.16890 0.06340
Ge1C Ge 0.40699(5) 0.59301(5) 0.59301(5)
Ge1B Ge 0.59301(5) 0.40699(5) 0.59301(5)
Ge1A Ge 0.59301(5) 0.59301(5) 0.40699(5)
Ge2B Ge 0.67959(5) 0.32041(5) 0.32041(5)
Ge2C Ge 0.32041(5) 0.67959(5) 0.32041(5)
Ge2A Ge 0.67959(5) 0.67959(5) 0.67959(5)
N1C N 0.4161(4) 0.5839(4) 0.4161(4)
N1B N 0.5839(4) 0.4161(4) 0.4161(4)
N1A N 0.5839(4) 0.5839(4) 0.5839(4)
C1B C 0.8422(6) 0.3593(5) 0.3593(5)
C1D C 0.6407(6) 0.1578(5) 0.3593(5)
C1K C 0.6407(6) 0.3593(5) 0.1578(5)
C1C C 0.1578(6) 0.6407(5) 0.3593(5)
C1F C 0.3593(6) 0.8422(5) 0.3593(5)
C1H C 0.3593(6) 0.6407(5) 0.1578(5)
C1A C 0.8422(6) 0.6407(5) 0.6407(5)
C1E C 0.6407(6) 0.8422(5) 0.6407(5)
C1I C 0.6407(6) 0.6407(5) 0.8422(5)
C1G C 0.3593(6) 0.1578(5) 0.6407(5)
C1J C 0.3593(6) 0.3593(5) 0.8422(5)
#END

data_CSD_CIF_NENWIN
_audit_creation_date 2006-11-27
_audit_creation_method CSD-ConQuest-V1
_database_code_CSD NENWIN
_database_code_depnum_ccdc_archive 'CCDC 616012'
_chemical_formula_sum 'C12 H36 N4 Sn8'
_chemical_formula_moiety
;
C12 H36 N4 Sn8
;
_journal_coden_Cambridge 9
_journal_volume 45
_journal_year 2006
_journal_page_first 6706
_journal_name_full 'Inorg.Chem. '
loop_
_publ_author_name
"J.F.Eichler"
"O.Just"
"W.S.Rees Junior"
_chemical_name_systematic
;
tetrakis(\m~3~-Trimethylstannylamido)-tetra-tin
;
_chemical_melting_point 483.15
_cell_volume   1565.179
_exptl_crystal_density_diffrn 2.516
_exptl_special_details
;
Melts with decomposition.

;
_diffrn_ambient_temperature 193
#These two values have been output from a single CSD field.
_refine_ls_R_factor_gt 0.0214
_refine_ls_wR_factor_gt 0.0214
_symmetry_cell_setting cubic
_symmetry_space_group_name_H-M 'I -4 3 m'
_symmetry_Int_Tables_number 217
loop_
_symmetry_equiv_pos_site_id
_symmetry_equiv_pos_as_xyz
1 x,y,z
2 -x,-y,z
3 -x,y,-z
4 x,-y,-z
5 z,x,y
6 z,-x,-y
7 -z,-x,y
8 -z,x,-y
9 y,z,x
10 -y,z,-x
11 y,-z,-x
12 -y,-z,x
13 y,x,z
14 -y,-x,z
15 y,-x,-z
16 -y,x,-z
17 x,z,y
18 -x,z,-y
19 -x,-z,y
20 x,-z,-y
21 z,y,x
22 z,-y,-x
23 -z,y,-x
24 -z,-y,x
25 1/2+x,1/2+y,1/2+z
26 1/2-x,1/2-y,1/2+z
27 1/2-x,1/2+y,1/2-z
28 1/2+x,1/2-y,1/2-z
29 1/2+z,1/2+x,1/2+y
30 1/2+z,1/2-x,1/2-y
31 1/2-z,1/2-x,1/2+y
32 1/2-z,1/2+x,1/2-y
33 1/2+y,1/2+z,1/2+x
34 1/2-y,1/2+z,1/2-x
35 1/2+y,1/2-z,1/2-x
36 1/2-y,1/2-z,1/2+x
37 1/2+y,1/2+x,1/2+z
38 1/2-y,1/2-x,1/2+z
39 1/2+y,1/2-x,1/2-z
40 1/2-y,1/2+x,1/2-z
41 1/2+x,1/2+z,1/2+y
42 1/2-x,1/2+z,1/2-y
43 1/2-x,1/2-z,1/2+y
44 1/2+x,1/2-z,1/2-y
45 1/2+z,1/2+y,1/2+x
46 1/2+z,1/2-y,1/2-x
47 1/2-z,1/2+y,1/2-x
48 1/2-z,1/2-y,1/2+x
_cell_length_a 11.6106(14)
_cell_length_b 11.6106(14)
_cell_length_c 11.6106(14)
_cell_angle_alpha 90
_cell_angle_beta 90
_cell_angle_gamma 90
_cell_formula_units_Z 2
loop_
_atom_type_symbol
_atom_type_radius_bond
C 0.68
H 0.23
N 0.68
Sn 1.43
loop_
_atom_site_label
_atom_site_type_symbol
_atom_site_fract_x
_atom_site_fract_y
_atom_site_fract_z
Sn1 Sn 0.09975(2) 0.09975(2) 0.09975(2)
Sn2 Sn 0.19030(2) 0.19030(2) -0.19030(2)
N1 N 0.0887(3) 0.0887(3) -0.0887(3)
C1 C 0.3636(5) 0.1461(4) -0.1461(4)
H1? H 0.36770 0.12770 -0.06560
H2? H 0.41340 0.21010 -0.16230
H3? H 0.38750 0.08060 -0.19060
Sn1B Sn -0.09975(2) 0.09975(2) -0.09975(2)
Sn1C Sn 0.09975(2) -0.09975(2) -0.09975(2)
Sn1A Sn -0.09975(2) -0.09975(2) 0.09975(2)
Sn2C Sn 0.19030(2) -0.19030(2) 0.19030(2)
Sn2B Sn -0.19030(2) 0.19030(2) 0.19030(2)
Sn2A Sn -0.19030(2) -0.19030(2) -0.19030(2)
N1B N -0.0887(3) 0.0887(3) 0.0887(3)
N1C N 0.0887(3) -0.0887(3) 0.0887(3)
N1A N -0.0887(3) -0.0887(3) -0.0887(3)
C1C C 0.3636(5) -0.1461(4) 0.1461(4)
C1F C 0.1461(5) -0.3636(4) 0.1461(4)
C1H C 0.1461(5) -0.1461(4) 0.3636(4)
C1B C -0.3636(5) 0.1461(4) 0.1461(4)
C1D C -0.1461(5) 0.3636(4) 0.1461(4)
C1K C -0.1461(5) 0.1461(4) 0.3636(4)
C1A C -0.3636(5) -0.1461(4) -0.1461(4)
C1E C -0.1461(5) -0.3636(4) -0.1461(4)
C1I C -0.1461(5) -0.1461(4) -0.3636(4)
C1G C 0.1461(5) 0.3636(4) -0.1461(4)
C1J C 0.1461(5) 0.1461(4) -0.3636(4)
#END

data_CSD_CIF_NEYSOA
_audit_creation_date 2007-06-20
_audit_creation_method CSD-ConQuest-V1
_database_code_CSD NEYSOA
_database_code_depnum_ccdc_archive 'CCDC 641668'
_chemical_formula_sum 'C78 H230 Cu17 Mn28 N12 O128'
_chemical_formula_moiety
;
C78 H158 Cu17 Mn28 N12 O92,36(H2 O1)
;
_journal_coden_Cambridge 4
_journal_volume 129
_journal_year 2007
_journal_page_first 1014
_journal_name_full 'J.Am.Chem.Soc. '
loop_
_publ_author_name
"Wen-Guo Wang"
"Ai-Ju Zhou"
"Wei-Xiong Zhang"
"Ming-Liang Tong"
"Xiao-Ming Chen"
"M.Nakano"
"C.C.Beedle"
"D.N.Hendrickson"
_chemical_name_systematic
;
dodecakis(\m~4~-tris(2-Oxyethyl)amine)-octacosakis(\m~4~-oxo)-dodecakis(\m~3~-
oxo)-hexakis(\m~2~-formato)-tetraaqua-tetra-copper(i)-trideca-copper(ii)-tetra
-manganese(ii)-dodeca-manganese(iii)-dodeca-manganese(iv) hydrate
;
_cell_volume   8420.065
_exptl_crystal_density_diffrn 2.368
_diffrn_ambient_temperature 123
#These two values have been output from a single CSD field.
_refine_ls_R_factor_gt 0.0456
_refine_ls_wR_factor_gt 0.0456
_symmetry_cell_setting cubic
_symmetry_space_group_name_H-M 'I -4 3 m'
_symmetry_Int_Tables_number 217
loop_
_symmetry_equiv_pos_site_id
_symmetry_equiv_pos_as_xyz
1 x,y,z
2 y,-x,-z
3 -x,-y,z
4 -y,x,-z
5 x,-y,-z
6 -y,-x,z
7 -x,y,-z
8 y,x,z
9 z,x,y
10 x,-z,-y
11 -z,-x,y
12 -x,z,-y
13 z,-x,-y
14 -x,-z,y
15 -z,x,-y
16 x,z,y
17 y,z,x
18 z,y,x
19 z,-y,-x
20 -z,-y,x
21 -z,y,-x
22 y,-z,-x
23 -y,-z,x
24 -y,z,-x
25 1/2+x,1/2+y,1/2+z
26 1/2+y,1/2-x,1/2-z
27 1/2-x,1/2-y,1/2+z
28 1/2-y,1/2+x,1/2-z
29 1/2+x,1/2-y,1/2-z
30 1/2-y,1/2-x,1/2+z
31 1/2-x,1/2+y,1/2-z
32 1/2+y,1/2+x,1/2+z
33 1/2+z,1/2+x,1/2+y
34 1/2+x,1/2-z,1/2-y
35 1/2-z,1/2-x,1/2+y
36 1/2-x,1/2+z,1/2-y
37 1/2+z,1/2-x,1/2-y
38 1/2-x,1/2-z,1/2+y
39 1/2-z,1/2+x,1/2-y
40 1/2+x,1/2+z,1/2+y
41 1/2+y,1/2+z,1/2+x
42 1/2+z,1/2+y,1/2+x
43 1/2+z,1/2-y,1/2-x
44 1/2-z,1/2-y,1/2+x
45 1/2-z,1/2+y,1/2-x
46 1/2+y,1/2-z,1/2-x
47 1/2-y,1/2-z,1/2+x
48 1/2-y,1/2+z,1/2-x
_cell_length_a 20.3441(9)
_cell_length_b 20.3441(9)
_cell_length_c 20.3441(9)
_cell_angle_alpha 90
_cell_angle_beta 90
_cell_angle_gamma 90
_cell_formula_units_Z 2
loop_
_atom_type_symbol
_atom_type_radius_bond
C 0.68
H 0.23
Cu 1.52
Mn 1.22
N 0.68
O 0.72
loop_
_atom_site_label
_atom_site_type_symbol
_atom_site_fract_x
_atom_site_fract_y
_atom_site_fract_z
Cu1 Cu 0.00000 0.00000 0.00000
Cu2 Cu -0.10423(7) 0.10423(7) 0.10423(7)
Cu3 Cu 0.01900(5) 0.20559(4) 0.20559(4)
Mn1 Mn 0.04948(5) 0.15077(6) 0.04948(5)
Mn2 Mn -0.05029(5) 0.25985(7) 0.05029(5)
Mn3 Mn 0.16166(6) 0.16166(6) 0.16166(6)
O1 O 0.0560(3) 0.0560(3) 0.0560(3)
O2 O -0.0434(2) 0.1511(3) 0.0434(2)
O3 O 0.0446(2) 0.2436(3) 0.0446(2)
O4 O 0.0502(3) 0.1427(2) 0.1427(2)
O5 O 0.1107(5) 0.2230(3) 0.2230(3)
O6 O -0.0467(3) 0.2615(3) 0.1447(3)
O7 O -0.0386(3) 0.3639(4) 0.0386(3)
O8 O -0.1606(4) 0.1606(4) 0.1606(4)
H1? H -0.13900 0.16520 0.19620
N1 N -0.0012(4) 0.2732(3) 0.2732(3)
C1 C 0.0618(8) 0.2975(6) 0.2975(6)
H2 H 0.06330 0.29030 0.34500
C2 C 0.1196(4) 0.2690(3) 0.2690(3)
H3 H 0.14520 0.30370 0.25040
C3 C -0.0375(8) 0.2409(5) 0.3245(5)
H4 H -0.01030 0.24410 0.36480
H5 H -0.07720 0.26800 0.33250
C4 C -0.0584(6) 0.3208(5) 0.1776(5)
H6 H -0.10630 0.32940 0.17690
H7 H -0.03700 0.35660 0.15240
C5 C 0.00000 0.3926(7) 0.00000
H8 H 0.00000 0.43930 0.00000
O9 O 0.1159(2) 0.3361(3) 0.1159(2)
H9? H 0.09160 0.31260 0.09160
H10 H 0.10870 0.32740 0.15640
O10 O 0.1023(2) 0.4690(3) 0.1023(2)
H11? H 0.10650 0.42770 0.10650
H12 H 0.13520 0.49330 0.09400
O11 O 0.00000 0.50000 0.1841(14)
H13? H 0.01030 0.49690 0.22440
H14? H -0.03170 0.50980 0.15870
Cu2A Cu 0.10423(7) 0.10423(7) -0.10423(7)
Cu2C Cu -0.10423(7) -0.10423(7) -0.10423(7)
Cu2B Cu 0.10423(7) -0.10423(7) 0.10423(7)
Cu3C Cu -0.20559(5) 0.01900(4) -0.20559(4)
Cu3T Cu -0.20559(5) 0.20559(4) -0.01900(4)
Cu3F Cu -0.01900(5) 0.20559(4) -0.20559(4)
Cu3A Cu 0.20559(5) -0.01900(4) -0.20559(4)
Cu3R Cu 0.20559(5) -0.20559(4) -0.01900(4)
Cu3D Cu 0.01900(5) -0.20559(4) -0.20559(4)
Cu3P Cu 0.20559(5) 0.20559(4) 0.01900(4)
Cu3G Cu 0.20559(5) 0.01900(4) 0.20559(4)
Cu3E Cu -0.20559(5) -0.01900(4) 0.20559(4)
Cu3S Cu -0.20559(5) -0.20559(4) 0.01900(4)
Cu3B Cu -0.01900(5) -0.20559(4) 0.20559(4)
Mn1E Mn -0.15077(5) -0.04948(6) 0.04948(5)
Mn1A Mn 0.15077(5) -0.04948(6) -0.04948(5)
Mn1F Mn -0.04948(5) 0.15077(6) -0.04948(5)
Mn1C Mn -0.15077(5) 0.04948(6) -0.04948(5)
Mn1D Mn 0.04948(5) -0.15077(6) -0.04948(5)
Mn1I Mn 0.04948(5) -0.04948(6) -0.15077(5)
Mn1K Mn -0.04948(5) 0.04948(6) -0.15077(5)
Mn1B Mn -0.04948(5) -0.15077(6) 0.04948(5)
Mn1J Mn -0.04948(5) -0.04948(6) 0.15077(5)
Mn1H Mn 0.04948(5) 0.04948(6) 0.15077(5)
Mn1G Mn 0.15077(5) 0.04948(6) 0.04948(5)
Mn2K Mn 0.05029(5) 0.05029(7) -0.25985(5)
Mn2E Mn -0.25985(5) 0.05029(7) 0.05029(5)
Mn2C Mn -0.25985(5) -0.05029(7) -0.05029(5)
Mn2F Mn 0.05029(5) 0.25985(7) -0.05029(5)
Mn2G Mn 0.25985(5) -0.05029(7) 0.05029(5)
Mn2A Mn 0.25985(5) 0.05029(7) -0.05029(5)
Mn2B Mn 0.05029(5) -0.25985(7) 0.05029(5)
Mn2D Mn -0.05029(5) -0.25985(7) -0.05029(5)
Mn2J Mn -0.05029(5) 0.05029(7) 0.25985(5)
Mn2I Mn -0.05029(5) -0.05029(7) -0.25985(5)
Mn2H Mn 0.05029(5) -0.05029(7) 0.25985(5)
Mn3C Mn -0.16166(6) 0.16166(6) -0.16166(6)
Mn3A Mn 0.16166(6) -0.16166(6) -0.16166(6)
Mn3B Mn -0.16166(6) -0.16166(6) 0.16166(6)
O1B O -0.0560(3) -0.0560(3) 0.0560(3)
O1A O 0.0560(3) -0.0560(3) -0.0560(3)
O1C O -0.0560(3) 0.0560(3) -0.0560(3)
O2E O -0.1511(2) 0.0434(3) 0.0434(2)
O2A O 0.1511(2) 0.0434(3) -0.0434(2)
O2F O 0.0434(2) 0.1511(3) -0.0434(2)
O2C O -0.1511(2) -0.0434(3) -0.0434(2)
O2D O -0.0434(2) -0.1511(3) -0.0434(2)
O2K O 0.0434(2) 0.0434(3) -0.1511(2)
O2I O -0.0434(2) -0.0434(3) -0.1511(2)
O2G O 0.1511(2) -0.0434(3) 0.0434(2)
O2B O 0.0434(2) -0.1511(3) 0.0434(2)
O2J O -0.0434(2) 0.0434(3) 0.1511(2)
O2H O 0.0434(2) -0.0434(3) 0.1511(2)
O3I O 0.0446(2) -0.0446(3) -0.2436(2)
O3K O -0.0446(2) 0.0446(3) -0.2436(2)
O3E O -0.2436(2) -0.0446(3) 0.0446(2)
O3C O -0.2436(2) 0.0446(3) -0.0446(2)
O3F O -0.0446(2) 0.2436(3) -0.0446(2)
O3G O 0.2436(2) 0.0446(3) 0.0446(2)
O3A O 0.2436(2) -0.0446(3) -0.0446(2)
O3B O -0.0446(2) -0.2436(3) 0.0446(2)
O3D O 0.0446(2) -0.2436(3) -0.0446(2)
O3J O -0.0446(2) -0.0446(3) 0.2436(2)
O3H O 0.0446(2) 0.0446(3) 0.2436(2)
O4C O -0.1427(3) 0.0502(2) -0.1427(2)
O4T O -0.1427(3) 0.1427(2) -0.0502(2)
O4F O -0.0502(3) 0.1427(2) -0.1427(2)
O4A O 0.1427(3) -0.0502(2) -0.1427(2)
O4R O 0.1427(3) -0.1427(2) -0.0502(2)
O4D O 0.0502(3) -0.1427(2) -0.1427(2)
O4P O 0.1427(3) 0.1427(2) 0.0502(2)
O4G O 0.1427(3) 0.0502(2) 0.1427(2)
O4E O -0.1427(3) -0.0502(2) 0.1427(2)
O4S O -0.1427(3) -0.1427(2) 0.0502(2)
O4B O -0.0502(3) -0.1427(2) 0.1427(2)
O5C O -0.2230(5) 0.1107(3) -0.2230(3)
O5T O -0.2230(5) 0.2230(3) -0.1107(3)
O5F O -0.1107(5) 0.2230(3) -0.2230(3)
O5R O 0.2230(5) -0.2230(3) -0.1107(3)
O5D O 0.1107(5) -0.2230(3) -0.2230(3)
O5A O 0.2230(5) -0.1107(3) -0.2230(3)
O5G O 0.2230(5) 0.1107(3) 0.2230(3)
O5P O 0.2230(5) 0.2230(3) 0.1107(3)
O5S O -0.2230(5) -0.2230(3) 0.1107(3)
O5B O -0.1107(5) -0.2230(3) 0.2230(3)
O5E O -0.2230(5) -0.1107(3) 0.2230(3)
O6K O 0.0467(3) 0.1447(3) -0.2615(3)
O6L O 0.1447(3) 0.0467(3) -0.2615(3)
O6A O 0.2615(3) 0.0467(3) -0.1447(3)
O6P O 0.2615(3) 0.1447(3) -0.0467(3)
O6Q O 0.1447(3) 0.2615(3) -0.0467(3)
O6F O 0.0467(3) 0.2615(3) -0.1447(3)
O6O O -0.0467(3) 0.1447(3) 0.2615(3)
O6J O -0.1447(3) 0.0467(3) 0.2615(3)
O6E O -0.2615(3) 0.0467(3) 0.1447(3)
O6W O -0.2615(3) 0.1447(3) 0.0467(3)
O6T O -0.1447(3) 0.2615(3) 0.0467(3)
O6C O -0.2615(3) -0.0467(3) -0.1447(3)
O6N O -0.1447(3) -0.0467(3) -0.2615(3)
O6I O -0.0467(3) -0.1447(3) -0.2615(3)
O6D O -0.0467(3) -0.2615(3) -0.1447(3)
O6S O -0.1447(3) -0.2615(3) -0.0467(3)
O6V O -0.2615(3) -0.1447(3) -0.0467(3)
O6B O 0.0467(3) -0.2615(3) 0.1447(3)
O6M O 0.0467(3) -0.1447(3) 0.2615(3)
O6H O 0.1447(3) -0.0467(3) 0.2615(3)
O6G O 0.2615(3) -0.0467(3) 0.1447(3)
O6U O 0.2615(3) -0.1447(3) 0.0467(3)
O6R O 0.1447(3) -0.2615(3) 0.0467(3)
O7F O 0.0386(3) 0.3639(4) -0.0386(3)
O7E O -0.3639(3) 0.0386(4) 0.0386(3)
O7C O -0.3639(3) -0.0386(4) -0.0386(3)
O7D O -0.0386(3) -0.3639(4) -0.0386(3)
O7B O 0.0386(3) -0.3639(4) 0.0386(3)
O7G O 0.3639(3) -0.0386(4) 0.0386(3)
O7A O 0.3639(3) 0.0386(4) -0.0386(3)
O7H O 0.0386(3) -0.0386(4) 0.3639(3)
O7J O -0.0386(3) 0.0386(4) 0.3639(3)
O7I O -0.0386(3) -0.0386(4) -0.3639(3)
O7K O 0.0386(3) 0.0386(4) -0.3639(3)
O8A O 0.1606(4) 0.1606(4) -0.1606(4)
O8C O -0.1606(4) -0.1606(4) -0.1606(4)
O8B O 0.1606(4) -0.1606(4) 0.1606(4)
N1F N 0.0012(4) 0.2732(3) -0.2732(3)
N1T N -0.2732(4) 0.2732(3) 0.0012(3)
N1S N -0.2732(4) -0.2732(3) -0.0012(3)
N1R N 0.2732(4) -0.2732(3) 0.0012(3)
N1G N 0.2732(4) -0.0012(3) 0.2732(3)
N1B N 0.0012(4) -0.2732(3) 0.2732(3)
N1D N -0.0012(4) -0.2732(3) -0.2732(3)
N1C N -0.2732(4) -0.0012(3) -0.2732(3)
N1E N -0.2732(4) 0.0012(3) 0.2732(3)
N1P N 0.2732(4) 0.2732(3) -0.0012(3)
N1A N 0.2732(4) 0.0012(3) -0.2732(3)
C1F C -0.0618(8) 0.2975(6) -0.2975(6)
C1T C -0.2975(8) 0.2975(6) -0.0618(6)
C1S C -0.2975(8) -0.2975(6) 0.0618(6)
C1R C 0.2975(8) -0.2975(6) -0.0618(6)
C1G C 0.2975(8) 0.0618(6) 0.2975(6)
C1B C -0.0618(8) -0.2975(6) 0.2975(6)
C1D C 0.0618(8) -0.2975(6) -0.2975(6)
C1C C -0.2975(8) 0.0618(6) -0.2975(6)
C1E C -0.2975(8) -0.0618(6) 0.2975(6)
C1P C 0.2975(8) 0.2975(6) 0.0618(6)
C1A C 0.2975(8) -0.0618(6) -0.2975(6)
H2W H -0.29030 0.34500 -0.06330
H2T H -0.34500 0.29030 -0.06330
H2S H -0.34500 -0.29030 0.06330
H2V H -0.29030 -0.34500 0.06330
H2U H 0.29030 -0.34500 -0.06330
H2R H 0.34500 -0.29030 -0.06330
H2H H 0.34500 0.06330 0.29030
H2G H 0.29030 0.06330 0.34500
H2B H -0.06330 -0.29030 0.34500
H2M H -0.06330 -0.34500 0.29030
H2I H 0.06330 -0.34500 -0.29030
H2D H 0.06330 -0.29030 -0.34500
H2C H -0.29030 0.06330 -0.34500
H2N H -0.34500 0.06330 -0.29030
H2J H -0.34500 -0.06330 0.29030
H2E H -0.29030 -0.06330 0.34500
H2O H 0.06330 0.34500 0.29030
H2P H 0.29030 0.34500 0.06330
H2Q H 0.34500 0.29030 0.06330
H2L H 0.34500 -0.06330 -0.29030
H2A H 0.29030 -0.06330 -0.34500
H2F H -0.06330 0.29030 -0.34500
H2K H -0.06330 0.34500 -0.29030
C2F C -0.1196(4) 0.2690(3) -0.2690(3)
C2T C -0.2690(4) 0.2690(3) -0.1196(3)
C2S C -0.2690(4) -0.2690(3) 0.1196(3)
C2R C 0.2690(4) -0.2690(3) -0.1196(3)
C2G C 0.2690(4) 0.1196(3) 0.2690(3)
C2B C -0.1196(4) -0.2690(3) 0.2690(3)
C2D C 0.1196(4) -0.2690(3) -0.2690(3)
C2C C -0.2690(4) 0.1196(3) -0.2690(3)
C2E C -0.2690(4) -0.1196(3) 0.2690(3)
C2P C 0.2690(4) 0.2690(3) 0.1196(3)
C2A C 0.2690(4) -0.1196(3) -0.2690(3)
H3W H -0.30370 0.25040 -0.14520
H3T H -0.25040 0.30370 -0.14520
H3S H -0.25040 -0.30370 0.14520
H3V H -0.30370 -0.25040 0.14520
H3U H 0.30370 -0.25040 -0.14520
H3R H 0.25040 -0.30370 -0.14520
H3H H 0.25040 0.14520 0.30370
H3G H 0.30370 0.14520 0.25040
H3B H -0.14520 -0.30370 0.25040
H3M H -0.14520 -0.25040 0.30370
H3I H 0.14520 -0.25040 -0.30370
H3D H 0.14520 -0.30370 -0.25040
H3C H -0.30370 0.14520 -0.25040
H3N H -0.25040 0.14520 -0.30370
H3J H -0.25040 -0.14520 0.30370
H3E H -0.30370 -0.14520 0.25040
H3O H 0.14520 0.25040 0.30370
H3P H 0.30370 0.25040 0.14520
H3Q H 0.25040 0.30370 0.14520
H3L H 0.25040 -0.14520 -0.30370
H3A H 0.30370 -0.14520 -0.25040
H3F H -0.14520 0.30370 -0.25040
H3K H -0.14520 0.25040 -0.30370
C3K C 0.0375(8) 0.3245(5) -0.2409(5)
C3F C 0.0375(8) 0.2409(5) -0.3245(5)
C3W C -0.2409(8) 0.3245(5) 0.0375(5)
C3T C -0.3245(8) 0.2409(5) 0.0375(5)
C3S C -0.3245(8) -0.2409(5) -0.0375(5)
C3V C -0.2409(8) -0.3245(5) -0.0375(5)
C3U C 0.2409(8) -0.3245(5) 0.0375(5)
C3R C 0.3245(8) -0.2409(5) 0.0375(5)
C3H C 0.3245(8) -0.0375(5) 0.2409(5)
C3G C 0.2409(8) -0.0375(5) 0.3245(5)
C3B C 0.0375(8) -0.2409(5) 0.3245(5)
C3M C 0.0375(8) -0.3245(5) 0.2409(5)
C3I C -0.0375(8) -0.3245(5) -0.2409(5)
C3D C -0.0375(8) -0.2409(5) -0.3245(5)
C3C C -0.2409(8) -0.0375(5) -0.3245(5)
C3N C -0.3245(8) -0.0375(5) -0.2409(5)
C3J C -0.3245(8) 0.0375(5) 0.2409(5)
C3E C -0.2409(8) 0.0375(5) 0.3245(5)
C3O C -0.0375(8) 0.3245(5) 0.2409(5)
C3P C 0.2409(8) 0.3245(5) -0.0375(5)
C3Q C 0.3245(8) 0.2409(5) -0.0375(5)
C3L C 0.3245(8) 0.0375(5) -0.2409(5)
C3A C 0.2409(8) 0.0375(5) -0.3245(5)
H4F H 0.01030 0.24410 -0.36480
H4K H 0.01030 0.36480 -0.24410
H4T H -0.36480 0.24410 0.01030
H4W H -0.24410 0.36480 0.01030
H4V H -0.24410 -0.36480 -0.01030
H4S H -0.36480 -0.24410 -0.01030
H4R H 0.36480 -0.24410 0.01030
H4U H 0.24410 -0.36480 0.01030
H4G H 0.24410 -0.01030 0.36480
H4H H 0.36480 -0.01030 0.24410
H4M H 0.01030 -0.36480 0.24410
H4B H 0.01030 -0.24410 0.36480
H4D H -0.01030 -0.24410 -0.36480
H4I H -0.01030 -0.36480 -0.24410
H4N H -0.36480 -0.01030 -0.24410
H4C H -0.24410 -0.01030 -0.36480
H4E H -0.24410 0.01030 0.36480
H4J H -0.36480 0.01030 0.24410
H4O H -0.01030 0.36480 0.24410
H4Q H 0.36480 0.24410 -0.01030
H4P H 0.24410 0.36480 -0.01030
H4A H 0.24410 0.01030 -0.36480
H4L H 0.36480 0.01030 -0.24410
H5F H 0.07720 0.26800 -0.33250
H5K H 0.07720 0.33250 -0.26800
H5T H -0.33250 0.26800 0.07720
H5W H -0.26800 0.33250 0.07720
H5V H -0.26800 -0.33250 -0.07720
H5S H -0.33250 -0.26800 -0.07720
H5R H 0.33250 -0.26800 0.07720
H5U H 0.26800 -0.33250 0.07720
H5G H 0.26800 -0.07720 0.33250
H5H H 0.33250 -0.07720 0.26800
H5M H 0.07720 -0.33250 0.26800
H5B H 0.07720 -0.26800 0.33250
H5D H -0.07720 -0.26800 -0.33250
H5I H -0.07720 -0.33250 -0.26800
H5N H -0.33250 -0.07720 -0.26800
H5C H -0.26800 -0.07720 -0.33250
H5E H -0.26800 0.07720 0.33250
H5J H -0.33250 0.07720 0.26800
H5O H -0.07720 0.33250 0.26800
H5Q H 0.33250 0.26800 -0.07720
H5P H 0.26800 0.33250 -0.07720
H5A H 0.26800 0.07720 -0.33250
H5L H 0.33250 0.07720 -0.26800
C4F C 0.0584(6) 0.3208(5) -0.1776(5)
C4K C 0.0584(6) 0.1776(5) -0.3208(5)
C4T C -0.1776(6) 0.3208(5) 0.0584(5)
C4W C -0.3208(6) 0.1776(5) 0.0584(5)
C4V C -0.3208(6) -0.1776(5) -0.0584(5)
C4S C -0.1776(6) -0.3208(5) -0.0584(5)
C4R C 0.1776(6) -0.3208(5) 0.0584(5)
C4U C 0.3208(6) -0.1776(5) 0.0584(5)
C4G C 0.3208(6) -0.0584(5) 0.1776(5)
C4H C 0.1776(6) -0.0584(5) 0.3208(5)
C4M C 0.0584(6) -0.1776(5) 0.3208(5)
C4B C 0.0584(6) -0.3208(5) 0.1776(5)
C4D C -0.0584(6) -0.3208(5) -0.1776(5)
C4I C -0.0584(6) -0.1776(5) -0.3208(5)
C4N C -0.1776(6) -0.0584(5) -0.3208(5)
C4C C -0.3208(6) -0.0584(5) -0.1776(5)
C4E C -0.3208(6) 0.0584(5) 0.1776(5)
C4J C -0.1776(6) 0.0584(5) 0.3208(5)
C4O C -0.0584(6) 0.1776(5) 0.3208(5)
C4Q C 0.1776(6) 0.3208(5) -0.0584(5)
C4P C 0.3208(6) 0.1776(5) -0.0584(5)
C4A C 0.3208(6) 0.0584(5) -0.1776(5)
C4L C 0.1776(6) 0.0584(5) -0.3208(5)
H6K H 0.10630 0.17690 -0.32940
H6F H 0.10630 0.32940 -0.17690
H6W H -0.32940 0.17690 0.10630
H6T H -0.17690 0.32940 0.10630
H6S H -0.17690 -0.32940 -0.10630
H6V H -0.32940 -0.17690 -0.10630
H6U H 0.32940 -0.17690 0.10630
H6R H 0.17690 -0.32940 0.10630
H6H H 0.17690 -0.10630 0.32940
H6G H 0.32940 -0.10630 0.17690
H6B H 0.10630 -0.32940 0.17690
H6M H 0.10630 -0.17690 0.32940
H6I H -0.10630 -0.17690 -0.32940
H6D H -0.10630 -0.32940 -0.17690
H6C H -0.32940 -0.10630 -0.17690
H6N H -0.17690 -0.10630 -0.32940
H6J H -0.17690 0.10630 0.32940
H6E H -0.32940 0.10630 0.17690
H6O H -0.10630 0.17690 0.32940
H6P H 0.32940 0.17690 -0.10630
H6Q H 0.17690 0.32940 -0.10630
H6L H 0.17690 0.10630 -0.32940
H6A H 0.32940 0.10630 -0.17690
H7K H 0.03700 0.15240 -0.35660
H7F H 0.03700 0.35660 -0.15240
H7W H -0.35660 0.15240 0.03700
H7T H -0.15240 0.35660 0.03700
H7S H -0.15240 -0.35660 -0.03700
H7V H -0.35660 -0.15240 -0.03700
H7U H 0.35660 -0.15240 0.03700
H7R H 0.15240 -0.35660 0.03700
H7H H 0.15240 -0.03700 0.35660
H7G H 0.35660 -0.03700 0.15240
H7B H 0.03700 -0.35660 0.15240
H7M H 0.03700 -0.15240 0.35660
H7I H -0.03700 -0.15240 -0.35660
H7D H -0.03700 -0.35660 -0.15240
H7C H -0.35660 -0.03700 -0.15240
H7N H -0.15240 -0.03700 -0.35660
H7J H -0.15240 0.03700 0.35660
H7E H -0.35660 0.03700 0.15240
H7O H -0.03700 0.15240 0.35660
H7P H 0.35660 0.15240 -0.03700
H7Q H 0.15240 0.35660 -0.03700
H7L H 0.15240 0.03700 -0.35660
H7A H 0.35660 0.03700 -0.15240
C5C C -0.39260 0.0000(7) 0.00000
C5B C 0.00000 -0.3926(7) 0.00000
C5A C 0.39260 0.0000(7) 0.00000
C5H C 0.00000 0.0000(7) 0.39260
C5I C 0.00000 0.0000(7) -0.39260
H8A H 0.43930 0.00000 0.00000
H8H H 0.00000 0.00000 0.43930
H8B H 0.00000 -0.43930 0.00000
H8I H 0.00000 0.00000 -0.43930
H8C H -0.43930 0.00000 0.00000
H10Q H 0.15640 0.32740 0.10870
H12Q H 0.09400 0.49330 0.13520
#END

data_CSD_CIF_NIWMIP
_audit_creation_date 1998-06-18
_audit_creation_method CSD-ConQuest-V1
_database_code_CSD NIWMIP
_chemical_formula_sum 'C12 H36 Al4 N4 S6'
_chemical_formula_moiety
;
C12 H36 Al4 N4 S6
;
_journal_coden_Cambridge 4
_journal_volume 119
_journal_year 1997
_journal_page_first 9566
_journal_name_full 'J.Am.Chem.Soc. '
loop_
_publ_author_name
"R.J.Wehmschulte"
"P.P.Power"
_chemical_name_systematic
;
hexakis(\m~2~-Sulfido)-tetrakis(trimethylamide)-tetra-aluminium
;
_cell_volume   1485.251
_exptl_crystal_colour 'colorless'
_exptl_crystal_density_diffrn 1.2
_exptl_crystal_description 'block'
_diffrn_ambient_temperature 130
#These two values have been output from a single CSD field.
_refine_ls_R_factor_gt 0.0305
_refine_ls_wR_factor_gt 0.0305
_symmetry_cell_setting cubic
_symmetry_space_group_name_H-M 'I -4 3 m'
_symmetry_Int_Tables_number 217
loop_
_symmetry_equiv_pos_site_id
_symmetry_equiv_pos_as_xyz
1 x,y,z
2 y,-x,-z
3 x,-y,-z
4 z,x,y
5 -x,-y,z
6 -y,-x,z
7 x,-z,-y
8 -y,x,-z
9 -x,y,-z
10 -z,-x,y
11 y,x,z
12 -x,z,-y
13 z,-x,-y
14 x,z,y
15 -z,x,-y
16 -x,-z,y
17 y,z,x
18 z,-y,-x
19 -z,-y,x
20 y,-z,-x
21 z,y,x
22 -y,z,-x
23 -y,-z,x
24 -z,y,-x
25 1/2+x,1/2+y,1/2+z
26 1/2+y,1/2-x,1/2-z
27 1/2+x,1/2-y,1/2-z
28 1/2+z,1/2+x,1/2+y
29 1/2-x,1/2-y,1/2+z
30 1/2-y,1/2-x,1/2+z
31 1/2+x,1/2-z,1/2-y
32 1/2-y,1/2+x,1/2-z
33 1/2-x,1/2+y,1/2-z
34 1/2-z,1/2-x,1/2+y
35 1/2+y,1/2+x,1/2+z
36 1/2-x,1/2+z,1/2-y
37 1/2+z,1/2-x,1/2-y
38 1/2+x,1/2+z,1/2+y
39 1/2-z,1/2+x,1/2-y
40 1/2-x,1/2-z,1/2+y
41 1/2+y,1/2+z,1/2+x
42 1/2+z,1/2-y,1/2-x
43 1/2-z,1/2-y,1/2+x
44 1/2+y,1/2-z,1/2-x
45 1/2+z,1/2+y,1/2+x
46 1/2-y,1/2+z,1/2-x
47 1/2-y,1/2-z,1/2+x
48 1/2-z,1/2+y,1/2-x
_cell_length_a 11.4095(9)
_cell_length_b 11.4095(9)
_cell_length_c 11.4095(9)
_cell_angle_alpha 90
_cell_angle_beta 90
_cell_angle_gamma 90
_cell_formula_units_Z 2
loop_
_atom_type_symbol
_atom_type_radius_bond
C 0.68
H 0.23
Al 1.35
N 0.68
S 1.02
loop_
_atom_site_label
_atom_site_type_symbol
_atom_site_fract_x
_atom_site_fract_y
_atom_site_fract_z
H1 H 0.3226(28) 0.3226(28) 0.1695(34)
H2 H 0.2297(27) 0.3310(21) 0.0837(23)
S1 S 0.00000 0.00000 0.2319(1)
Al1 Al 0.1039(1) 0.1039(1) 0.1039(1)
N1 N 0.2046(2) 0.2046(2) 0.2046(2)
C1 C 0.2804(2) 0.2804(2) 0.1301(3)
H2J H 0.3310(27) 0.2297(21) 0.0837(23)
Al1D Al -0.1039(1) -0.1039(1) 0.1039(1)
S1I S -0.23190 0.00000 0.0000(1)
Al1N Al -0.1039(1) 0.1039(1) -0.1039(1)
S1U S 0.00000 0.23190 0.0000(1)
S1C S 0.23190 0.00000 0.0000(1)
Al1L Al 0.1039(1) -0.1039(1) -0.1039(1)
S1S S 0.00000 -0.23190 0.0000(1)
N1D N -0.2046(2) -0.2046(2) 0.2046(2)
C1D C -0.2804(2) -0.2804(2) 0.1301(3)
H1D H -0.3226(28) -0.3226(28) 0.1695(34)
H2D H -0.2297(27) -0.3310(21) 0.0837(23)
H2E H -0.3310(27) -0.2297(21) 0.0837(23)
C1I C -0.1301(2) -0.2804(2) 0.2804(3)
H1I H -0.1695(28) -0.3226(28) 0.3226(34)
H2I H -0.0837(27) -0.2297(21) 0.3310(23)
H2R H -0.0837(27) -0.3310(21) 0.2297(23)
C1O C -0.2804(2) -0.1301(2) 0.2804(3)
H1O H -0.3226(28) -0.1695(28) 0.3226(34)
H2O H -0.2297(27) -0.0837(21) 0.3310(23)
H2V H -0.3310(27) -0.0837(21) 0.2297(23)
S1G S 0.00000 0.00000 -0.2319(1)
N1N N -0.2046(2) 0.2046(2) -0.2046(2)
C1N C -0.1301(2) 0.2804(2) -0.2804(3)
H1N H -0.1695(28) 0.3226(28) -0.3226(34)
H2N H -0.0837(27) 0.2297(21) -0.3310(23)
H2W H -0.0837(27) 0.3310(21) -0.2297(23)
C1U C -0.2804(2) 0.1301(2) -0.2804(3)
H1U H -0.3226(28) 0.1695(28) -0.3226(34)
H2U H -0.3310(27) 0.0837(21) -0.2297(23)
H2K H -0.2297(27) 0.0837(21) -0.3310(23)
C1G C -0.2804(2) 0.2804(2) -0.1301(3)
H1G H -0.3226(28) 0.3226(28) -0.1695(34)
H2G H -0.3310(27) 0.2297(21) -0.0837(23)
H2H H -0.2297(27) 0.3310(21) -0.0837(23)
N1L N 0.2046(2) -0.2046(2) -0.2046(2)
C1L C 0.1301(2) -0.2804(2) -0.2804(3)
H1L H 0.1695(28) -0.3226(28) -0.3226(34)
H2L H 0.0837(27) -0.2297(21) -0.3310(23)
H2Q H 0.0837(27) -0.3310(21) -0.2297(23)
C1S C 0.2804(2) -0.1301(2) -0.2804(3)
H1S H 0.3226(28) -0.1695(28) -0.3226(34)
H2S H 0.3310(27) -0.0837(21) -0.2297(23)
H2F H 0.2297(27) -0.0837(21) -0.3310(23)
C1A C 0.2804(2) -0.2804(2) -0.1301(3)
H1A H 0.3226(28) -0.3226(28) -0.1695(34)
H2A H 0.3310(27) -0.2297(21) -0.0837(23)
H2B H 0.2297(27) -0.3310(21) -0.0837(23)
C1C C 0.1301(2) 0.2804(2) 0.2804(3)
H1C H 0.1695(28) 0.3226(28) 0.3226(34)
H2C H 0.0837(27) 0.2297(21) 0.3310(23)
H2T H 0.0837(27) 0.3310(21) 0.2297(23)
C1M C 0.2804(2) 0.1301(2) 0.2804(3)
H1M H 0.3226(28) 0.1695(28) 0.3226(34)
H2M H 0.2297(27) 0.0837(21) 0.3310(23)
H2P H 0.3310(27) 0.0837(21) 0.2297(23)
#END

data_CSD_CIF_POSLOY10
_audit_creation_date 1996-08-14
_audit_creation_method CSD-ConQuest-V1
_database_code_CSD POSLOY10
_chemical_formula_sum 'C12 Cl4 O12 Tc4'
_chemical_formula_moiety
;
C12 Cl4 O12 Tc4
;
_journal_coden_Cambridge 513
_journal_volume 36
_journal_year 1994
_journal_page_first 199
_journal_name_full 'Radiokhimiya(Russ.)(Radiochem.) '
loop_
_publ_author_name
"H.A.Baturin"
"M.S.Grigoriev"
"S.V.Kryutckov"
"A.E.Miroslavov"
"G.V.Sidorenko"
"D.N.Suglobov"
_chemical_name_systematic
;
tetrakis((\m~3~-Chloro)-tricarbonyl-technetium)
;
_cell_volume   1099.744
_exptl_crystal_density_diffrn 2.63
_diffrn_ambient_temperature ?
_diffrn_special_details
;
The study was carried out at room temperature,in the range 283-303K

;
#These two values have been output from a single CSD field.
_refine_ls_R_factor_gt 0.021
_refine_ls_wR_factor_gt 0.021
_symmetry_cell_setting cubic
_symmetry_space_group_name_H-M 'I -4 3 m'
_symmetry_Int_Tables_number 217
loop_
_symmetry_equiv_pos_site_id
_symmetry_equiv_pos_as_xyz
1 x,y,z
2 y,-x,-z
3 x,-y,-z
4 z,x,y
5 -x,-y,z
6 -y,-x,z
7 x,-z,-y
8 -y,x,-z
9 -x,y,-z
10 -z,-x,y
11 y,x,z
12 -x,z,-y
13 z,-x,-y
14 x,z,y
15 -z,x,-y
16 -x,-z,y
17 y,z,x
18 z,-y,-x
19 -z,-y,x
20 y,-z,-x
21 z,y,x
22 -y,z,-x
23 -y,-z,x
24 -z,y,-x
25 1/2+x,1/2+y,1/2+z
26 1/2+y,1/2-x,1/2-z
27 1/2+x,1/2-y,1/2-z
28 1/2+z,1/2+x,1/2+y
29 1/2-x,1/2-y,1/2+z
30 1/2-y,1/2-x,1/2+z
31 1/2+x,1/2-z,1/2-y
32 1/2-y,1/2+x,1/2-z
33 1/2-x,1/2+y,1/2-z
34 1/2-z,1/2-x,1/2+y
35 1/2+y,1/2+x,1/2+z
36 1/2-x,1/2+z,1/2-y
37 1/2+z,1/2-x,1/2-y
38 1/2+x,1/2+z,1/2+y
39 1/2-z,1/2+x,1/2-y
40 1/2-x,1/2-z,1/2+y
41 1/2+y,1/2+z,1/2+x
42 1/2+z,1/2-y,1/2-x
43 1/2-z,1/2-y,1/2+x
44 1/2+y,1/2-z,1/2-x
45 1/2+z,1/2+y,1/2+x
46 1/2-y,1/2+z,1/2-x
47 1/2-y,1/2-z,1/2+x
48 1/2-z,1/2+y,1/2-x
_cell_length_a 10.322(3)
_cell_length_b 10.322(3)
_cell_length_c 10.322(3)
_cell_angle_alpha 90
_cell_angle_beta 90
_cell_angle_gamma 90
_cell_formula_units_Z 2
loop_
_atom_type_symbol
_atom_type_radius_bond
C 0.68
Cl 0.99
O 0.68
Tc 1.35
loop_
_atom_site_label
_atom_site_type_symbol
_atom_site_fract_x
_atom_site_fract_y
_atom_site_fract_z
Tc1 Tc 0.13153(2) 0.13153 0.13153
Cl1 Cl 0.11533(7) 0.11533 -0.11533
C1 C 0.1341(3) 0.13410 0.3159(3)
O1 O 0.1374(2) 0.13740 0.4251(3)
Tc1A Tc 0.13153(2) -0.13153 -0.13153
Cl1A Cl 0.11533(7) -0.11533 0.11533
Tc1D Tc -0.13153(2) -0.13153 0.13153
Cl1D Cl -0.11533(7) -0.11533 -0.11533
Tc1G Tc -0.13153(2) 0.13153 -0.13153
Cl1G Cl -0.11533(7) 0.11533 0.11533
C1C C 0.3159(3) 0.13410 0.1341(3)
O1C O 0.4251(2) 0.13740 0.1374(3)
C1M C 0.1341(3) 0.31590 0.1341(3)
O1M O 0.1374(2) 0.42510 0.1374(3)
C1D C -0.1341(3) -0.13410 0.3159(3)
O1D O -0.1374(2) -0.13740 0.4251(3)
C1I C -0.3159(3) -0.13410 0.1341(3)
O1I O -0.4251(2) -0.13740 0.1374(3)
C1O C -0.1341(3) -0.31590 0.1341(3)
O1O O -0.1374(2) -0.42510 0.1374(3)
C1G C -0.1341(3) 0.13410 -0.3159(3)
O1G O -0.1374(2) 0.13740 -0.4251(3)
C1K C -0.1341(3) 0.31590 -0.1341(3)
O1K O -0.1374(2) 0.42510 -0.1374(3)
C1N C -0.3159(3) 0.13410 -0.1341(3)
O1N O -0.4251(2) 0.13740 -0.1374(3)
C1A C 0.1341(3) -0.13410 -0.3159(3)
O1A O 0.1374(2) -0.13740 -0.4251(3)
C1F C 0.1341(3) -0.31590 -0.1341(3)
O1F O 0.1374(2) -0.42510 -0.1374(3)
C1L C 0.3159(3) -0.13410 -0.1341(3)
O1L O 0.4251(2) -0.13740 -0.1374(3)
#END

data_CSD_CIF_QAMCAM01
_audit_creation_date 2020-12-18
_audit_creation_method CSD-ConQuest-V1
_database_code_CSD QAMCAM01
_database_code_depnum_ccdc_archive 'CCDC 1982558'
_chemical_formula_sum 'C6 H12 N4'
_chemical_formula_moiety
;
C6 H12 N4
;
_journal_coden_Cambridge 1220
_journal_volume 27
_journal_year 2020
_journal_page_first 1094
_journal_name_full 'Chem.-Eur.J. '
loop_
_publ_author_name
"P.A.Gunka"
"A.Olejniczak"
"S.Fanetti"
"R.Bini"
"I.E.Collings"
"V.Svitlyk"
"K.F.Dziubek"
_chemical_name_systematic
;
1,3,5,7-tetraazatricyclo[3.3.1.1^3,7^]decane
;
_chemical_name_common
;
hexamethylenetetramine; urotropine
;
_cell_volume    331.302
_exptl_crystal_colour 'colorless'
_exptl_crystal_density_diffrn 1.405
_exptl_crystal_description 'block'
_diffrn_ambient_temperature 293
_diffrn_ambient_pressure 535000.0
_diffrn_radiation_probe x-ray
_diffrn_source synchrotron
#These two values have been output from a single CSD field.
_refine_ls_R_factor_gt 0.0414
_refine_ls_wR_factor_gt 0.0414
_symmetry_cell_setting cubic
_symmetry_space_group_name_H-M 'I -4 3 m'
_symmetry_Int_Tables_number 217
loop_
_symmetry_equiv_pos_site_id
_symmetry_equiv_pos_as_xyz
1 x,y,z
2 y,-x,-z
3 -x,-y,z
4 -y,x,-z
5 -x,z,-y
6 x,-y,-z
7 -x,-z,y
8 -z,-y,x
9 -x,y,-z
10 z,-y,-x
11 z,x,y
12 y,z,x
13 -y,-z,x
14 z,-x,-y
15 -y,z,-x
16 -z,-x,y
17 -z,x,-y
18 y,-z,-x
19 -y,-x,z
20 y,x,z
21 x,-z,-y
22 x,z,y
23 -z,y,-x
24 z,y,x
25 1/2+x,1/2+y,1/2+z
26 1/2+y,1/2-x,1/2-z
27 1/2-x,1/2-y,1/2+z
28 1/2-y,1/2+x,1/2-z
29 1/2-x,1/2+z,1/2-y
30 1/2+x,1/2-y,1/2-z
31 1/2-x,1/2-z,1/2+y
32 1/2-z,1/2-y,1/2+x
33 1/2-x,1/2+y,1/2-z
34 1/2+z,1/2-y,1/2-x
35 1/2+z,1/2+x,1/2+y
36 1/2+y,1/2+z,1/2+x
37 1/2-y,1/2-z,1/2+x
38 1/2+z,1/2-x,1/2-y
39 1/2-y,1/2+z,1/2-x
40 1/2-z,1/2-x,1/2+y
41 1/2-z,1/2+x,1/2-y
42 1/2+y,1/2-z,1/2-x
43 1/2-y,1/2-x,1/2+z
44 1/2+y,1/2+x,1/2+z
45 1/2+x,1/2-z,1/2-y
46 1/2+x,1/2+z,1/2+y
47 1/2-z,1/2+y,1/2-x
48 1/2+z,1/2+y,1/2+x
_cell_length_a 6.9195(1)
_cell_length_b 6.9195(1)
_cell_length_c 6.9195(1)
_cell_angle_alpha 90
_cell_angle_beta 90
_cell_angle_gamma 90
_cell_formula_units_Z 2
loop_
_atom_type_symbol
_atom_type_radius_bond
C 0.68
H 0.23
N 0.68
loop_
_atom_site_label
_atom_site_type_symbol
_atom_site_fract_x
_atom_site_fract_y
_atom_site_fract_z
N1 N 0.1245(2) 0.1245(2) 0.1245(2)
C1 C 0.2418(3) 0.00000 0.00000
H1 H 0.32441 0.08010 -0.08010
N1A N 0.1245(2) -0.1245(2) -0.1245(2)
C1A C 0.0000(3) -0.24180 0.00000
H1A H 0.08010 -0.32441 0.08010
N1B N -0.1245(2) -0.1245(2) 0.1245(2)
C1B C -0.2418(3) 0.00000 0.00000
H1B H -0.32441 -0.08010 -0.08010
N1C N -0.1245(2) 0.1245(2) -0.1245(2)
C1C C 0.0000(3) 0.24180 0.00000
H1C H -0.08010 0.32441 0.08010
H1E H 0.32441 -0.08010 0.08010
H1F H -0.32441 0.08010 0.08010
C1G C 0.0000(3) 0.00000 0.24180
H1G H 0.08010 -0.08010 0.32441
C1I C 0.0000(3) 0.00000 -0.24180
H1I H -0.08010 -0.08010 -0.32441
H1L H -0.08010 0.08010 0.32441
H1M H -0.08010 -0.32441 -0.08010
H1P H 0.08010 0.32441 -0.08010
H1Q H 0.08010 0.08010 -0.32441
#END

data_CSD_CIF_QAMCAM02
_audit_creation_date 2020-12-18
_audit_creation_method CSD-ConQuest-V1
_database_code_CSD QAMCAM02
_database_code_depnum_ccdc_archive 'CCDC 1982559'
_chemical_formula_sum 'C6 H12 N4'
_chemical_formula_moiety
;
C6 H12 N4
;
_journal_coden_Cambridge 1220
_journal_volume 27
_journal_year 2020
_journal_page_first 1094
_journal_name_full 'Chem.-Eur.J. '
loop_
_publ_author_name
"P.A.Gunka"
"A.Olejniczak"
"S.Fanetti"
"R.Bini"
"I.E.Collings"
"V.Svitlyk"
"K.F.Dziubek"
_chemical_name_systematic
;
1,3,5,7-tetraazatricyclo[3.3.1.1^3,7^]decane
;
_chemical_name_common
;
hexamethylenetetramine; urotropine
;
_cell_volume    323.663
_exptl_crystal_colour 'colorless'
_exptl_crystal_density_diffrn 1.439
_exptl_crystal_description 'block'
_diffrn_ambient_temperature 293
_diffrn_ambient_pressure 830000.0
_diffrn_radiation_probe x-ray
_diffrn_source synchrotron
#These two values have been output from a single CSD field.
_refine_ls_R_factor_gt 0.0425
_refine_ls_wR_factor_gt 0.0425
_symmetry_cell_setting cubic
_symmetry_space_group_name_H-M 'I -4 3 m'
_symmetry_Int_Tables_number 217
loop_
_symmetry_equiv_pos_site_id
_symmetry_equiv_pos_as_xyz
1 x,y,z
2 -x,-y,z
3 -x,y,-z
4 x,-y,-z
5 z,x,y
6 z,-x,-y
7 -z,-x,y
8 -z,x,-y
9 y,z,x
10 -y,z,-x
11 y,-z,-x
12 -y,-z,x
13 y,x,z
14 -y,-x,z
15 y,-x,-z
16 -y,x,-z
17 x,z,y
18 -x,z,-y
19 -x,-z,y
20 x,-z,-y
21 z,y,x
22 z,-y,-x
23 -z,y,-x
24 -z,-y,x
25 1/2+x,1/2+y,1/2+z
26 1/2-x,1/2-y,1/2+z
27 1/2-x,1/2+y,1/2-z
28 1/2+x,1/2-y,1/2-z
29 1/2+z,1/2+x,1/2+y
30 1/2+z,1/2-x,1/2-y
31 1/2-z,1/2-x,1/2+y
32 1/2-z,1/2+x,1/2-y
33 1/2+y,1/2+z,1/2+x
34 1/2-y,1/2+z,1/2-x
35 1/2+y,1/2-z,1/2-x
36 1/2-y,1/2-z,1/2+x
37 1/2+y,1/2+x,1/2+z
38 1/2-y,1/2-x,1/2+z
39 1/2+y,1/2-x,1/2-z
40 1/2-y,1/2+x,1/2-z
41 1/2+x,1/2+z,1/2+y
42 1/2-x,1/2+z,1/2-y
43 1/2-x,1/2-z,1/2+y
44 1/2+x,1/2-z,1/2-y
45 1/2+z,1/2+y,1/2+x
46 1/2+z,1/2-y,1/2-x
47 1/2-z,1/2+y,1/2-x
48 1/2-z,1/2-y,1/2+x
_cell_length_a 6.8659(1)
_cell_length_b 6.8659(1)
_cell_length_c 6.8659(1)
_cell_angle_alpha 90
_cell_angle_beta 90
_cell_angle_gamma 90
_cell_formula_units_Z 2
loop_
_atom_type_symbol
_atom_type_radius_bond
C 0.68
H 0.23
N 0.68
loop_
_atom_site_label
_atom_site_type_symbol
_atom_site_fract_x
_atom_site_fract_y
_atom_site_fract_z
N1 N 0.1254(2) 0.1254(2) 0.1254(2)
C1 C 0.2439(4) 0.00000 0.00000
H1 H 0.32712 -0.08074 0.08074
N1C N 0.1254(2) -0.1254(2) -0.1254(2)
H1C H 0.32712 0.08074 -0.08074
C1D C 0.0000(4) 0.24390 0.00000
H1D H 0.08074 0.32712 -0.08074
C1E C 0.0000(4) -0.24390 0.00000
H1E H 0.08074 -0.32712 0.08074
N1A N -0.1254(2) -0.1254(2) 0.1254(2)
H1F H -0.08074 -0.32712 -0.08074
N1B N -0.1254(2) 0.1254(2) -0.1254(2)
H1G H -0.08074 0.32712 0.08074
C1H C 0.0000(4) 0.00000 0.24390
H1H H -0.08074 0.08074 0.32712
C1I C 0.0000(4) 0.00000 -0.24390
H1I H 0.08074 0.08074 -0.32712
H1J H -0.08074 -0.08074 -0.32712
H1K H 0.08074 -0.08074 0.32712
C1A C -0.2439(4) 0.00000 0.00000
H1A H -0.32712 0.08074 0.08074
H1B H -0.32712 -0.08074 -0.08074
#END

data_CSD_CIF_QAMCAM03
_audit_creation_date 2020-12-18
_audit_creation_method CSD-ConQuest-V1
_database_code_CSD QAMCAM03
_database_code_depnum_ccdc_archive 'CCDC 1982560'
_chemical_formula_sum 'C6 H12 N4'
_chemical_formula_moiety
;
C6 H12 N4
;
_journal_coden_Cambridge 1220
_journal_volume 27
_journal_year 2020
_journal_page_first 1094
_journal_name_full 'Chem.-Eur.J. '
loop_
_publ_author_name
"P.A.Gunka"
"A.Olejniczak"
"S.Fanetti"
"R.Bini"
"I.E.Collings"
"V.Svitlyk"
"K.F.Dziubek"
_chemical_name_systematic
;
1,3,5,7-tetraazatricyclo[3.3.1.1^3,7^]decane
;
_chemical_name_common
;
hexamethylenetetramine; urotropine
;
_cell_volume    321.202
_exptl_crystal_colour 'colorless'
_exptl_crystal_density_diffrn 1.45
_exptl_crystal_description 'block'
_diffrn_ambient_temperature 293
_diffrn_ambient_pressure 965000.0
_diffrn_radiation_probe x-ray
_diffrn_source synchrotron
#These two values have been output from a single CSD field.
_refine_ls_R_factor_gt 0.0435
_refine_ls_wR_factor_gt 0.0435
_symmetry_cell_setting cubic
_symmetry_space_group_name_H-M 'I -4 3 m'
_symmetry_Int_Tables_number 217
loop_
_symmetry_equiv_pos_site_id
_symmetry_equiv_pos_as_xyz
1 x,y,z
2 -x,-y,z
3 -x,y,-z
4 x,-y,-z
5 z,x,y
6 z,-x,-y
7 -z,-x,y
8 -z,x,-y
9 y,z,x
10 -y,z,-x
11 y,-z,-x
12 -y,-z,x
13 y,x,z
14 -y,-x,z
15 y,-x,-z
16 -y,x,-z
17 x,z,y
18 -x,z,-y
19 -x,-z,y
20 x,-z,-y
21 z,y,x
22 z,-y,-x
23 -z,y,-x
24 -z,-y,x
25 1/2+x,1/2+y,1/2+z
26 1/2-x,1/2-y,1/2+z
27 1/2-x,1/2+y,1/2-z
28 1/2+x,1/2-y,1/2-z
29 1/2+z,1/2+x,1/2+y
30 1/2+z,1/2-x,1/2-y
31 1/2-z,1/2-x,1/2+y
32 1/2-z,1/2+x,1/2-y
33 1/2+y,1/2+z,1/2+x
34 1/2-y,1/2+z,1/2-x
35 1/2+y,1/2-z,1/2-x
36 1/2-y,1/2-z,1/2+x
37 1/2+y,1/2+x,1/2+z
38 1/2-y,1/2-x,1/2+z
39 1/2+y,1/2-x,1/2-z
40 1/2-y,1/2+x,1/2-z
41 1/2+x,1/2+z,1/2+y
42 1/2-x,1/2+z,1/2-y
43 1/2-x,1/2-z,1/2+y
44 1/2+x,1/2-z,1/2-y
45 1/2+z,1/2+y,1/2+x
46 1/2+z,1/2-y,1/2-x
47 1/2-z,1/2+y,1/2-x
48 1/2-z,1/2-y,1/2+x
_cell_length_a 6.84846(12)
_cell_length_b 6.84846(12)
_cell_length_c 6.84846(12)
_cell_angle_alpha 90
_cell_angle_beta 90
_cell_angle_gamma 90
_cell_formula_units_Z 2
loop_
_atom_type_symbol
_atom_type_radius_bond
C 0.68
H 0.23
N 0.68
loop_
_atom_site_label
_atom_site_type_symbol
_atom_site_fract_x
_atom_site_fract_y
_atom_site_fract_z
N1 N 0.1258(2) 0.1258(2) 0.1258(2)
C1 C 0.2448(4) 0.00000 0.00000
H1 H 0.32817 0.08095 -0.08095
N1C N 0.1258(2) -0.1258(2) -0.1258(2)
H1C H 0.32817 -0.08095 0.08095
C1D C 0.0000(4) 0.24480 0.00000
H1D H -0.08095 0.32817 0.08095
C1E C 0.0000(4) -0.24480 0.00000
H1E H -0.08095 -0.32817 -0.08095
N1A N -0.1258(2) -0.1258(2) 0.1258(2)
H1F H 0.08095 -0.32817 0.08095
N1B N -0.1258(2) 0.1258(2) -0.1258(2)
H1G H 0.08095 0.32817 -0.08095
C1H C 0.0000(4) 0.00000 0.24480
H1H H 0.08095 -0.08095 0.32817
C1I C 0.0000(4) 0.00000 -0.24480
H1I H -0.08095 -0.08095 -0.32817
H1J H 0.08095 0.08095 -0.32817
H1K H -0.08095 0.08095 0.32817
C1A C -0.2448(4) 0.00000 0.00000
H1A H -0.32817 -0.08095 -0.08095
H1B H -0.32817 0.08095 0.08095
#END

data_CSD_CIF_QAMCAM04
_audit_creation_date 2020-12-18
_audit_creation_method CSD-ConQuest-V1
_database_code_CSD QAMCAM04
_database_code_depnum_ccdc_archive 'CCDC 1982561'
_chemical_formula_sum 'C6 H12 N4'
_chemical_formula_moiety
;
C6 H12 N4
;
_journal_coden_Cambridge 1220
_journal_volume 27
_journal_year 2020
_journal_page_first 1094
_journal_name_full 'Chem.-Eur.J. '
loop_
_publ_author_name
"P.A.Gunka"
"A.Olejniczak"
"S.Fanetti"
"R.Bini"
"I.E.Collings"
"V.Svitlyk"
"K.F.Dziubek"
_chemical_name_systematic
;
1,3,5,7-tetraazatricyclo[3.3.1.1^3,7^]decane
;
_chemical_name_common
;
hexamethylenetetramine; urotropine
;
_cell_volume    315.362
_exptl_crystal_colour 'colorless'
_exptl_crystal_density_diffrn 1.476
_exptl_crystal_description 'block'
_diffrn_ambient_temperature 293
_diffrn_ambient_pressure 1210000.0
_diffrn_radiation_probe x-ray
_diffrn_source synchrotron
#These two values have been output from a single CSD field.
_refine_ls_R_factor_gt 0.0432
_refine_ls_wR_factor_gt 0.0432
_symmetry_cell_setting cubic
_symmetry_space_group_name_H-M 'I -4 3 m'
_symmetry_Int_Tables_number 217
loop_
_symmetry_equiv_pos_site_id
_symmetry_equiv_pos_as_xyz
1 x,y,z
2 -x,-y,z
3 -x,y,-z
4 x,-y,-z
5 z,x,y
6 z,-x,-y
7 -z,-x,y
8 -z,x,-y
9 y,z,x
10 -y,z,-x
11 y,-z,-x
12 -y,-z,x
13 y,x,z
14 -y,-x,z
15 y,-x,-z
16 -y,x,-z
17 x,z,y
18 -x,z,-y
19 -x,-z,y
20 x,-z,-y
21 z,y,x
22 z,-y,-x
23 -z,y,-x
24 -z,-y,x
25 1/2+x,1/2+y,1/2+z
26 1/2-x,1/2-y,1/2+z
27 1/2-x,1/2+y,1/2-z
28 1/2+x,1/2-y,1/2-z
29 1/2+z,1/2+x,1/2+y
30 1/2+z,1/2-x,1/2-y
31 1/2-z,1/2-x,1/2+y
32 1/2-z,1/2+x,1/2-y
33 1/2+y,1/2+z,1/2+x
34 1/2-y,1/2+z,1/2-x
35 1/2+y,1/2-z,1/2-x
36 1/2-y,1/2-z,1/2+x
37 1/2+y,1/2+x,1/2+z
38 1/2-y,1/2-x,1/2+z
39 1/2+y,1/2-x,1/2-z
40 1/2-y,1/2+x,1/2-z
41 1/2+x,1/2+z,1/2+y
42 1/2-x,1/2+z,1/2-y
43 1/2-x,1/2-z,1/2+y
44 1/2+x,1/2-z,1/2-y
45 1/2+z,1/2+y,1/2+x
46 1/2+z,1/2-y,1/2-x
47 1/2-z,1/2+y,1/2-x
48 1/2-z,1/2-y,1/2+x
_cell_length_a 6.8067(2)
_cell_length_b 6.8067(2)
_cell_length_c 6.8067(2)
_cell_angle_alpha 90
_cell_angle_beta 90
_cell_angle_gamma 90
_cell_formula_units_Z 2
loop_
_atom_type_symbol
_atom_type_radius_bond
C 0.68
H 0.23
N 0.68
loop_
_atom_site_label
_atom_site_type_symbol
_atom_site_fract_x
_atom_site_fract_y
_atom_site_fract_z
N1 N 0.1266(2) 0.1266(2) 0.1266(2)
C1 C 0.2465(4) 0.00000 0.00000
H1 H 0.328(4) 0.087(3) -0.087(3)
N1C N 0.1266(2) -0.1266(2) -0.1266(2)
H1C H 0.328(4) -0.087(3) 0.087(3)
C1D C 0.0000(4) 0.24650 0.00000
H1D H -0.087(4) 0.328(3) 0.087(3)
C1E C 0.0000(4) -0.24650 0.00000
H1E H -0.087(4) -0.328(3) -0.087(3)
N1A N -0.1266(2) -0.1266(2) 0.1266(2)
H1F H 0.087(4) -0.328(3) 0.087(3)
N1B N -0.1266(2) 0.1266(2) -0.1266(2)
H1G H 0.087(4) 0.328(3) -0.087(3)
C1H C 0.0000(4) 0.00000 0.24650
H1H H 0.087(4) -0.087(3) 0.328(3)
C1I C 0.0000(4) 0.00000 -0.24650
H1I H -0.087(4) -0.087(3) -0.328(3)
H1J H 0.087(4) 0.087(3) -0.328(3)
H1K H -0.087(4) 0.087(3) 0.328(3)
C1A C -0.2465(4) 0.00000 0.00000
H1A H -0.328(4) -0.087(3) -0.087(3)
H1B H -0.328(4) 0.087(3) 0.087(3)
#END

data_CSD_CIF_QAMCAM05
_audit_creation_date 2020-12-18
_audit_creation_method CSD-ConQuest-V1
_database_code_CSD QAMCAM05
_database_code_depnum_ccdc_archive 'CCDC 1982562'
_chemical_formula_sum 'C6 H12 N4'
_chemical_formula_moiety
;
C6 H12 N4
;
_journal_coden_Cambridge 1220
_journal_volume 27
_journal_year 2020
_journal_page_first 1094
_journal_name_full 'Chem.-Eur.J. '
loop_
_publ_author_name
"P.A.Gunka"
"A.Olejniczak"
"S.Fanetti"
"R.Bini"
"I.E.Collings"
"V.Svitlyk"
"K.F.Dziubek"
_chemical_name_systematic
;
1,3,5,7-tetraazatricyclo[3.3.1.1^3,7^]decane
;
_chemical_name_common
;
hexamethylenetetramine; urotropine
;
_cell_volume    312.249
_exptl_crystal_colour 'colorless'
_exptl_crystal_density_diffrn 1.491
_exptl_crystal_description 'block'
_diffrn_ambient_temperature 293
_diffrn_ambient_pressure 1370000.0
_diffrn_radiation_probe x-ray
_diffrn_source synchrotron
#These two values have been output from a single CSD field.
_refine_ls_R_factor_gt 0.0413
_refine_ls_wR_factor_gt 0.0413
_symmetry_cell_setting cubic
_symmetry_space_group_name_H-M 'I -4 3 m'
_symmetry_Int_Tables_number 217
loop_
_symmetry_equiv_pos_site_id
_symmetry_equiv_pos_as_xyz
1 x,y,z
2 y,-x,-z
3 -x,-y,z
4 -y,x,-z
5 -x,z,-y
6 x,-y,-z
7 -x,-z,y
8 -z,-y,x
9 -x,y,-z
10 z,-y,-x
11 z,x,y
12 y,z,x
13 -y,-z,x
14 z,-x,-y
15 -y,z,-x
16 -z,-x,y
17 -z,x,-y
18 y,-z,-x
19 -y,-x,z
20 y,x,z
21 x,-z,-y
22 x,z,y
23 -z,y,-x
24 z,y,x
25 1/2+x,1/2+y,1/2+z
26 1/2+y,1/2-x,1/2-z
27 1/2-x,1/2-y,1/2+z
28 1/2-y,1/2+x,1/2-z
29 1/2-x,1/2+z,1/2-y
30 1/2+x,1/2-y,1/2-z
31 1/2-x,1/2-z,1/2+y
32 1/2-z,1/2-y,1/2+x
33 1/2-x,1/2+y,1/2-z
34 1/2+z,1/2-y,1/2-x
35 1/2+z,1/2+x,1/2+y
36 1/2+y,1/2+z,1/2+x
37 1/2-y,1/2-z,1/2+x
38 1/2+z,1/2-x,1/2-y
39 1/2-y,1/2+z,1/2-x
40 1/2-z,1/2-x,1/2+y
41 1/2-z,1/2+x,1/2-y
42 1/2+y,1/2-z,1/2-x
43 1/2-y,1/2-x,1/2+z
44 1/2+y,1/2+x,1/2+z
45 1/2+x,1/2-z,1/2-y
46 1/2+x,1/2+z,1/2+y
47 1/2-z,1/2+y,1/2-x
48 1/2+z,1/2+y,1/2+x
_cell_length_a 6.78423(18)
_cell_length_b 6.78423(18)
_cell_length_c 6.78423(18)
_cell_angle_alpha 90
_cell_angle_beta 90
_cell_angle_gamma 90
_cell_formula_units_Z 2
loop_
_atom_type_symbol
_atom_type_radius_bond
C 0.68
H 0.23
N 0.68
loop_
_atom_site_label
_atom_site_type_symbol
_atom_site_fract_x
_atom_site_fract_y
_atom_site_fract_z
N1 N 0.1268(2) 0.1268(2) 0.1268(2)
C1 C 0.2469(4) 0.00000 0.00000
H1 H 0.33108 0.08171 -0.08172
N1A N 0.1268(2) -0.1268(2) -0.1268(2)
C1A C 0.0000(4) -0.24690 0.00000
H1A H 0.08171 -0.33108 0.08172
N1B N -0.1268(2) -0.1268(2) 0.1268(2)
C1B C -0.2469(4) 0.00000 0.00000
H1B H -0.33108 -0.08171 -0.08172
N1C N -0.1268(2) 0.1268(2) -0.1268(2)
C1C C 0.0000(4) 0.24690 0.00000
H1C H -0.08171 0.33108 0.08172
H1E H 0.33108 -0.08171 0.08172
H1F H -0.33108 0.08172 0.08171
C1G C 0.0000(4) 0.00000 0.24690
H1G H 0.08172 -0.08171 0.33108
C1I C 0.0000(4) 0.00000 -0.24690
H1I H -0.08172 -0.08171 -0.33108
H1L H -0.08171 0.08172 0.33108
H1M H -0.08172 -0.33108 -0.08171
H1P H 0.08172 0.33108 -0.08171
H1Q H 0.08171 0.08172 -0.33108
#END

data_CSD_CIF_QAMCAM06
_audit_creation_date 2020-12-18
_audit_creation_method CSD-ConQuest-V1
_database_code_CSD QAMCAM06
_database_code_depnum_ccdc_archive 'CCDC 1982563'
_chemical_formula_sum 'C6 H12 N4'
_chemical_formula_moiety
;
C6 H12 N4
;
_journal_coden_Cambridge 1220
_journal_volume 27
_journal_year 2020
_journal_page_first 1094
_journal_name_full 'Chem.-Eur.J. '
loop_
_publ_author_name
"P.A.Gunka"
"A.Olejniczak"
"S.Fanetti"
"R.Bini"
"I.E.Collings"
"V.Svitlyk"
"K.F.Dziubek"
_chemical_name_systematic
;
1,3,5,7-tetraazatricyclo[3.3.1.1^3,7^]decane
;
_chemical_name_common
;
hexamethylenetetramine; urotropine
;
_cell_volume    310.412
_exptl_crystal_colour 'colorless'
_exptl_crystal_density_diffrn 1.5
_exptl_crystal_description 'block'
_diffrn_ambient_temperature 293
_diffrn_ambient_pressure 1560000.0
_diffrn_radiation_probe x-ray
_diffrn_source synchrotron
#These two values have been output from a single CSD field.
_refine_ls_R_factor_gt 0.0392
_refine_ls_wR_factor_gt 0.0392
_symmetry_cell_setting cubic
_symmetry_space_group_name_H-M 'I -4 3 m'
_symmetry_Int_Tables_number 217
loop_
_symmetry_equiv_pos_site_id
_symmetry_equiv_pos_as_xyz
1 x,y,z
2 -x,-y,z
3 -x,y,-z
4 x,-y,-z
5 z,x,y
6 z,-x,-y
7 -z,-x,y
8 -z,x,-y
9 y,z,x
10 -y,z,-x
11 y,-z,-x
12 -y,-z,x
13 y,x,z
14 -y,-x,z
15 y,-x,-z
16 -y,x,-z
17 x,z,y
18 -x,z,-y
19 -x,-z,y
20 x,-z,-y
21 z,y,x
22 z,-y,-x
23 -z,y,-x
24 -z,-y,x
25 1/2+x,1/2+y,1/2+z
26 1/2-x,1/2-y,1/2+z
27 1/2-x,1/2+y,1/2-z
28 1/2+x,1/2-y,1/2-z
29 1/2+z,1/2+x,1/2+y
30 1/2+z,1/2-x,1/2-y
31 1/2-z,1/2-x,1/2+y
32 1/2-z,1/2+x,1/2-y
33 1/2+y,1/2+z,1/2+x
34 1/2-y,1/2+z,1/2-x
35 1/2+y,1/2-z,1/2-x
36 1/2-y,1/2-z,1/2+x
37 1/2+y,1/2+x,1/2+z
38 1/2-y,1/2-x,1/2+z
39 1/2+y,1/2-x,1/2-z
40 1/2-y,1/2+x,1/2-z
41 1/2+x,1/2+z,1/2+y
42 1/2-x,1/2+z,1/2-y
43 1/2-x,1/2-z,1/2+y
44 1/2+x,1/2-z,1/2-y
45 1/2+z,1/2+y,1/2+x
46 1/2+z,1/2-y,1/2-x
47 1/2-z,1/2+y,1/2-x
48 1/2-z,1/2-y,1/2+x
_cell_length_a 6.7709(1)
_cell_length_b 6.7709(1)
_cell_length_c 6.7709(1)
_cell_angle_alpha 90
_cell_angle_beta 90
_cell_angle_gamma 90
_cell_formula_units_Z 2
loop_
_atom_type_symbol
_atom_type_radius_bond
C 0.68
H 0.23
N 0.68
loop_
_atom_site_label
_atom_site_type_symbol
_atom_site_fract_x
_atom_site_fract_y
_atom_site_fract_z
N1 N 0.1273(2) 0.1273(2) 0.1273(2)
C1 C 0.2477(4) 0.00000 0.00000
H1 H 0.33208 0.08188 -0.08188
N1C N 0.1273(2) -0.1273(2) -0.1273(2)
H1C H 0.33208 -0.08188 0.08188
C1D C 0.0000(4) 0.24770 0.00000
H1D H -0.08188 0.33208 0.08188
C1E C 0.0000(4) -0.24770 0.00000
H1E H -0.08188 -0.33208 -0.08188
N1A N -0.1273(2) -0.1273(2) 0.1273(2)
H1F H 0.08188 -0.33208 0.08188
N1B N -0.1273(2) 0.1273(2) -0.1273(2)
H1G H 0.08188 0.33208 -0.08188
C1H C 0.0000(4) 0.00000 0.24770
H1H H 0.08188 -0.08188 0.33208
C1I C 0.0000(4) 0.00000 -0.24770
H1I H -0.08188 -0.08188 -0.33208
H1J H 0.08188 0.08188 -0.33208
H1K H -0.08188 0.08188 0.33208
C1A C -0.2477(4) 0.00000 0.00000
H1A H -0.33208 -0.08188 -0.08188
H1B H -0.33208 0.08188 0.08188
#END

data_CSD_CIF_QAMCAM07
_audit_creation_date 2020-12-18
_audit_creation_method CSD-ConQuest-V1
_database_code_CSD QAMCAM07
_database_code_depnum_ccdc_archive 'CCDC 1982564'
_chemical_formula_sum 'C6 H12 N4'
_chemical_formula_moiety
;
C6 H12 N4
;
_journal_coden_Cambridge 1220
_journal_volume 27
_journal_year 2020
_journal_page_first 1094
_journal_name_full 'Chem.-Eur.J. '
loop_
_publ_author_name
"P.A.Gunka"
"A.Olejniczak"
"S.Fanetti"
"R.Bini"
"I.E.Collings"
"V.Svitlyk"
"K.F.Dziubek"
_chemical_name_systematic
;
1,3,5,7-tetraazatricyclo[3.3.1.1^3,7^]decane
;
_chemical_name_common
;
hexamethylenetetramine; urotropine
;
_cell_volume    307.342
_exptl_crystal_colour 'colorless'
_exptl_crystal_density_diffrn 1.515
_exptl_crystal_description 'block'
_diffrn_ambient_temperature 293
_diffrn_ambient_pressure 1770000.0
_diffrn_radiation_probe x-ray
_diffrn_source synchrotron
#These two values have been output from a single CSD field.
_refine_ls_R_factor_gt 0.0443
_refine_ls_wR_factor_gt 0.0443
_symmetry_cell_setting cubic
_symmetry_space_group_name_H-M 'I -4 3 m'
_symmetry_Int_Tables_number 217
loop_
_symmetry_equiv_pos_site_id
_symmetry_equiv_pos_as_xyz
1 x,y,z
2 -x,-y,z
3 -x,y,-z
4 x,-y,-z
5 z,x,y
6 z,-x,-y
7 -z,-x,y
8 -z,x,-y
9 y,z,x
10 -y,z,-x
11 y,-z,-x
12 -y,-z,x
13 y,x,z
14 -y,-x,z
15 y,-x,-z
16 -y,x,-z
17 x,z,y
18 -x,z,-y
19 -x,-z,y
20 x,-z,-y
21 z,y,x
22 z,-y,-x
23 -z,y,-x
24 -z,-y,x
25 1/2+x,1/2+y,1/2+z
26 1/2-x,1/2-y,1/2+z
27 1/2-x,1/2+y,1/2-z
28 1/2+x,1/2-y,1/2-z
29 1/2+z,1/2+x,1/2+y
30 1/2+z,1/2-x,1/2-y
31 1/2-z,1/2-x,1/2+y
32 1/2-z,1/2+x,1/2-y
33 1/2+y,1/2+z,1/2+x
34 1/2-y,1/2+z,1/2-x
35 1/2+y,1/2-z,1/2-x
36 1/2-y,1/2-z,1/2+x
37 1/2+y,1/2+x,1/2+z
38 1/2-y,1/2-x,1/2+z
39 1/2+y,1/2-x,1/2-z
40 1/2-y,1/2+x,1/2-z
41 1/2+x,1/2+z,1/2+y
42 1/2-x,1/2+z,1/2-y
43 1/2-x,1/2-z,1/2+y
44 1/2+x,1/2-z,1/2-y
45 1/2+z,1/2+y,1/2+x
46 1/2+z,1/2-y,1/2-x
47 1/2-z,1/2+y,1/2-x
48 1/2-z,1/2-y,1/2+x
_cell_length_a 6.7485(1)
_cell_length_b 6.7485(1)
_cell_length_c 6.7485(1)
_cell_angle_alpha 90
_cell_angle_beta 90
_cell_angle_gamma 90
_cell_formula_units_Z 2
loop_
_atom_type_symbol
_atom_type_radius_bond
C 0.68
H 0.23
N 0.68
loop_
_atom_site_label
_atom_site_type_symbol
_atom_site_fract_x
_atom_site_fract_y
_atom_site_fract_z
N1 N 0.1276(2) 0.1276(2) 0.1276(2)
C1 C 0.2484(4) 0.00000 0.00000
H1 H 0.33300 -0.08215 0.08215
N1C N 0.1276(2) -0.1276(2) -0.1276(2)
H1C H 0.33300 0.08215 -0.08215
C1D C 0.0000(4) 0.24840 0.00000
H1D H 0.08215 0.33300 -0.08215
C1E C 0.0000(4) -0.24840 0.00000
H1E H 0.08215 -0.33300 0.08215
N1A N -0.1276(2) -0.1276(2) 0.1276(2)
H1F H -0.08215 -0.33300 -0.08215
N1B N -0.1276(2) 0.1276(2) -0.1276(2)
H1G H -0.08215 0.33300 0.08215
C1H C 0.0000(4) 0.00000 0.24840
H1H H -0.08215 0.08215 0.33300
C1I C 0.0000(4) 0.00000 -0.24840
H1I H 0.08215 0.08215 -0.33300
H1J H -0.08215 -0.08215 -0.33300
H1K H 0.08215 -0.08215 0.33300
C1A C -0.2484(4) 0.00000 0.00000
H1A H -0.33300 0.08215 0.08215
H1B H -0.33300 -0.08215 -0.08215
#END

data_CSD_CIF_QAMCAM08
_audit_creation_date 2020-12-18
_audit_creation_method CSD-ConQuest-V1
_database_code_CSD QAMCAM08
_database_code_depnum_ccdc_archive 'CCDC 1982565'
_chemical_formula_sum 'C6 H12 N4'
_chemical_formula_moiety
;
C6 H12 N4
;
_journal_coden_Cambridge 1220
_journal_volume 27
_journal_year 2020
_journal_page_first 1094
_journal_name_full 'Chem.-Eur.J. '
loop_
_publ_author_name
"P.A.Gunka"
"A.Olejniczak"
"S.Fanetti"
"R.Bini"
"I.E.Collings"
"V.Svitlyk"
"K.F.Dziubek"
_chemical_name_systematic
;
1,3,5,7-tetraazatricyclo[3.3.1.1^3,7^]decane
;
_chemical_name_common
;
hexamethylenetetramine; urotropine
;
_cell_volume    304.808
_exptl_crystal_colour 'colorless'
_exptl_crystal_density_diffrn 1.528
_exptl_crystal_description 'block'
_diffrn_ambient_temperature 293
_diffrn_ambient_pressure 1970000.0
_diffrn_radiation_probe x-ray
_diffrn_source synchrotron
#These two values have been output from a single CSD field.
_refine_ls_R_factor_gt 0.0463
_refine_ls_wR_factor_gt 0.0463
_symmetry_cell_setting cubic
_symmetry_space_group_name_H-M 'I -4 3 m'
_symmetry_Int_Tables_number 217
loop_
_symmetry_equiv_pos_site_id
_symmetry_equiv_pos_as_xyz
1 x,y,z
2 -x,-y,z
3 -x,y,-z
4 x,-y,-z
5 z,x,y
6 z,-x,-y
7 -z,-x,y
8 -z,x,-y
9 y,z,x
10 -y,z,-x
11 y,-z,-x
12 -y,-z,x
13 y,x,z
14 -y,-x,z
15 y,-x,-z
16 -y,x,-z
17 x,z,y
18 -x,z,-y
19 -x,-z,y
20 x,-z,-y
21 z,y,x
22 z,-y,-x
23 -z,y,-x
24 -z,-y,x
25 1/2+x,1/2+y,1/2+z
26 1/2-x,1/2-y,1/2+z
27 1/2-x,1/2+y,1/2-z
28 1/2+x,1/2-y,1/2-z
29 1/2+z,1/2+x,1/2+y
30 1/2+z,1/2-x,1/2-y
31 1/2-z,1/2-x,1/2+y
32 1/2-z,1/2+x,1/2-y
33 1/2+y,1/2+z,1/2+x
34 1/2-y,1/2+z,1/2-x
35 1/2+y,1/2-z,1/2-x
36 1/2-y,1/2-z,1/2+x
37 1/2+y,1/2+x,1/2+z
38 1/2-y,1/2-x,1/2+z
39 1/2+y,1/2-x,1/2-z
40 1/2-y,1/2+x,1/2-z
41 1/2+x,1/2+z,1/2+y
42 1/2-x,1/2+z,1/2-y
43 1/2-x,1/2-z,1/2+y
44 1/2+x,1/2-z,1/2-y
45 1/2+z,1/2+y,1/2+x
46 1/2+z,1/2-y,1/2-x
47 1/2-z,1/2+y,1/2-x
48 1/2-z,1/2-y,1/2+x
_cell_length_a 6.7299(1)
_cell_length_b 6.7299(1)
_cell_length_c 6.7299(1)
_cell_angle_alpha 90
_cell_angle_beta 90
_cell_angle_gamma 90
_cell_formula_units_Z 2
loop_
_atom_type_symbol
_atom_type_radius_bond
C 0.68
H 0.23
N 0.68
loop_
_atom_site_label
_atom_site_type_symbol
_atom_site_fract_x
_atom_site_fract_y
_atom_site_fract_z
N1 N 0.1280(2) 0.1280(2) 0.1280(2)
C1 C 0.2492(4) 0.00000 0.00000
H1 H 0.33404 0.08237 -0.08237
N1C N 0.1280(2) -0.1280(2) -0.1280(2)
H1C H 0.33404 -0.08237 0.08237
C1D C 0.0000(4) 0.24920 0.00000
H1D H -0.08237 0.33404 0.08237
C1E C 0.0000(4) -0.24920 0.00000
H1E H -0.08237 -0.33404 -0.08237
N1A N -0.1280(2) -0.1280(2) 0.1280(2)
H1F H 0.08237 -0.33404 0.08237
N1B N -0.1280(2) 0.1280(2) -0.1280(2)
H1G H 0.08237 0.33404 -0.08237
C1H C 0.0000(4) 0.00000 0.24920
H1H H 0.08237 -0.08237 0.33404
C1I C 0.0000(4) 0.00000 -0.24920
H1I H -0.08237 -0.08237 -0.33404
H1J H 0.08237 0.08237 -0.33404
H1K H -0.08237 0.08237 0.33404
C1A C -0.2492(4) 0.00000 0.00000
H1A H -0.33404 -0.08237 -0.08237
H1B H -0.33404 0.08237 0.08237
#END

data_CSD_CIF_QAMCAM09
_audit_creation_date 2020-12-18
_audit_creation_method CSD-ConQuest-V1
_database_code_CSD QAMCAM09
_database_code_depnum_ccdc_archive 'CCDC 1982566'
_chemical_formula_sum 'C6 H12 N4'
_chemical_formula_moiety
;
C6 H12 N4
;
_journal_coden_Cambridge 1220
_journal_volume 27
_journal_year 2020
_journal_page_first 1094
_journal_name_full 'Chem.-Eur.J. '
loop_
_publ_author_name
"P.A.Gunka"
"A.Olejniczak"
"S.Fanetti"
"R.Bini"
"I.E.Collings"
"V.Svitlyk"
"K.F.Dziubek"
_chemical_name_systematic
;
1,3,5,7-tetraazatricyclo[3.3.1.1^3,7^]decane
;
_chemical_name_common
;
hexamethylenetetramine; urotropine
;
_cell_volume    302.206
_exptl_crystal_colour 'colorless'
_exptl_crystal_density_diffrn 1.541
_exptl_crystal_description 'block'
_diffrn_ambient_temperature 293
_diffrn_ambient_pressure 2170000.0
_diffrn_radiation_probe x-ray
_diffrn_source synchrotron
#These two values have been output from a single CSD field.
_refine_ls_R_factor_gt 0.036
_refine_ls_wR_factor_gt 0.036
_symmetry_cell_setting cubic
_symmetry_space_group_name_H-M 'I -4 3 m'
_symmetry_Int_Tables_number 217
loop_
_symmetry_equiv_pos_site_id
_symmetry_equiv_pos_as_xyz
1 x,y,z
2 -x,-y,z
3 -x,y,-z
4 x,-y,-z
5 z,x,y
6 z,-x,-y
7 -z,-x,y
8 -z,x,-y
9 y,z,x
10 -y,z,-x
11 y,-z,-x
12 -y,-z,x
13 y,x,z
14 -y,-x,z
15 y,-x,-z
16 -y,x,-z
17 x,z,y
18 -x,z,-y
19 -x,-z,y
20 x,-z,-y
21 z,y,x
22 z,-y,-x
23 -z,y,-x
24 -z,-y,x
25 1/2+x,1/2+y,1/2+z
26 1/2-x,1/2-y,1/2+z
27 1/2-x,1/2+y,1/2-z
28 1/2+x,1/2-y,1/2-z
29 1/2+z,1/2+x,1/2+y
30 1/2+z,1/2-x,1/2-y
31 1/2-z,1/2-x,1/2+y
32 1/2-z,1/2+x,1/2-y
33 1/2+y,1/2+z,1/2+x
34 1/2-y,1/2+z,1/2-x
35 1/2+y,1/2-z,1/2-x
36 1/2-y,1/2-z,1/2+x
37 1/2+y,1/2+x,1/2+z
38 1/2-y,1/2-x,1/2+z
39 1/2+y,1/2-x,1/2-z
40 1/2-y,1/2+x,1/2-z
41 1/2+x,1/2+z,1/2+y
42 1/2-x,1/2+z,1/2-y
43 1/2-x,1/2-z,1/2+y
44 1/2+x,1/2-z,1/2-y
45 1/2+z,1/2+y,1/2+x
46 1/2+z,1/2-y,1/2-x
47 1/2-z,1/2+y,1/2-x
48 1/2-z,1/2-y,1/2+x
_cell_length_a 6.7107(1)
_cell_length_b 6.7107(1)
_cell_length_c 6.7107(1)
_cell_angle_alpha 90
_cell_angle_beta 90
_cell_angle_gamma 90
_cell_formula_units_Z 2
loop_
_atom_type_symbol
_atom_type_radius_bond
C 0.68
H 0.23
N 0.68
loop_
_atom_site_label
_atom_site_type_symbol
_atom_site_fract_x
_atom_site_fract_y
_atom_site_fract_z
N1 N 0.1284(2) 0.1284(2) 0.1284(2)
C1 C 0.2500(4) 0.00000 0.00000
H1 H 0.333(5) 0.087(3) -0.087(3)
N1C N 0.1284(2) -0.1284(2) -0.1284(2)
H1C H 0.333(5) -0.087(3) 0.087(3)
C1D C 0.0000(4) 0.25000 0.00000
H1D H -0.087(5) 0.333(3) 0.087(3)
C1E C 0.0000(4) -0.25000 0.00000
H1E H -0.087(5) -0.333(3) -0.087(3)
N1A N -0.1284(2) -0.1284(2) 0.1284(2)
H1F H 0.087(5) -0.333(3) 0.087(3)
N1B N -0.1284(2) 0.1284(2) -0.1284(2)
H1G H 0.087(5) 0.333(3) -0.087(3)
C1H C 0.0000(4) 0.00000 0.25000
H1H H 0.087(5) -0.087(3) 0.333(3)
C1I C 0.0000(4) 0.00000 -0.25000
H1I H -0.087(5) -0.087(3) -0.333(3)
H1J H 0.087(5) 0.087(3) -0.333(3)
H1K H -0.087(5) 0.087(3) 0.333(3)
C1A C -0.2500(4) 0.00000 0.00000
H1A H -0.333(5) -0.087(3) -0.087(3)
H1B H -0.333(5) 0.087(3) 0.087(3)
#END

data_CSD_CIF_QAMCAM10
_audit_creation_date 2020-12-18
_audit_creation_method CSD-ConQuest-V1
_database_code_CSD QAMCAM10
_database_code_depnum_ccdc_archive 'CCDC 1982567'
_chemical_formula_sum 'C6 H12 N4'
_chemical_formula_moiety
;
C6 H12 N4
;
_journal_coden_Cambridge 1220
_journal_volume 27
_journal_year 2020
_journal_page_first 1094
_journal_name_full 'Chem.-Eur.J. '
loop_
_publ_author_name
"P.A.Gunka"
"A.Olejniczak"
"S.Fanetti"
"R.Bini"
"I.E.Collings"
"V.Svitlyk"
"K.F.Dziubek"
_chemical_name_systematic
;
1,3,5,7-tetraazatricyclo[3.3.1.1^3,7^]decane
;
_chemical_name_common
;
hexamethylenetetramine; urotropine
;
_cell_volume    299.768
_exptl_crystal_colour 'colorless'
_exptl_crystal_density_diffrn 1.553
_exptl_crystal_description 'block'
_diffrn_ambient_temperature 293
_diffrn_ambient_pressure 2400000.0
_diffrn_radiation_probe x-ray
_diffrn_source synchrotron
#These two values have been output from a single CSD field.
_refine_ls_R_factor_gt 0.047
_refine_ls_wR_factor_gt 0.047
_symmetry_cell_setting cubic
_symmetry_space_group_name_H-M 'I -4 3 m'
_symmetry_Int_Tables_number 217
loop_
_symmetry_equiv_pos_site_id
_symmetry_equiv_pos_as_xyz
1 x,y,z
2 -x,-y,z
3 -x,y,-z
4 x,-y,-z
5 z,x,y
6 z,-x,-y
7 -z,-x,y
8 -z,x,-y
9 y,z,x
10 -y,z,-x
11 y,-z,-x
12 -y,-z,x
13 y,x,z
14 -y,-x,z
15 y,-x,-z
16 -y,x,-z
17 x,z,y
18 -x,z,-y
19 -x,-z,y
20 x,-z,-y
21 z,y,x
22 z,-y,-x
23 -z,y,-x
24 -z,-y,x
25 1/2+x,1/2+y,1/2+z
26 1/2-x,1/2-y,1/2+z
27 1/2-x,1/2+y,1/2-z
28 1/2+x,1/2-y,1/2-z
29 1/2+z,1/2+x,1/2+y
30 1/2+z,1/2-x,1/2-y
31 1/2-z,1/2-x,1/2+y
32 1/2-z,1/2+x,1/2-y
33 1/2+y,1/2+z,1/2+x
34 1/2-y,1/2+z,1/2-x
35 1/2+y,1/2-z,1/2-x
36 1/2-y,1/2-z,1/2+x
37 1/2+y,1/2+x,1/2+z
38 1/2-y,1/2-x,1/2+z
39 1/2+y,1/2-x,1/2-z
40 1/2-y,1/2+x,1/2-z
41 1/2+x,1/2+z,1/2+y
42 1/2-x,1/2+z,1/2-y
43 1/2-x,1/2-z,1/2+y
44 1/2+x,1/2-z,1/2-y
45 1/2+z,1/2+y,1/2+x
46 1/2+z,1/2-y,1/2-x
47 1/2-z,1/2+y,1/2-x
48 1/2-z,1/2-y,1/2+x
_cell_length_a 6.6926(2)
_cell_length_b 6.6926(2)
_cell_length_c 6.6926(2)
_cell_angle_alpha 90
_cell_angle_beta 90
_cell_angle_gamma 90
_cell_formula_units_Z 2
loop_
_atom_type_symbol
_atom_type_radius_bond
C 0.68
H 0.23
N 0.68
loop_
_atom_site_label
_atom_site_type_symbol
_atom_site_fract_x
_atom_site_fract_y
_atom_site_fract_z
N1 N 0.1289(2) 0.1289(2) 0.1289(2)
C1 C 0.2506(4) 0.00000 0.00000
H1 H 0.33599 -0.08282 0.08283
N1C N 0.1289(2) -0.1289(2) -0.1289(2)
H1C H 0.33599 0.08282 -0.08283
C1D C 0.0000(4) 0.25060 0.00000
H1D H 0.08283 0.33599 -0.08282
C1E C 0.0000(4) -0.25060 0.00000
H1E H 0.08283 -0.33599 0.08282
N1A N -0.1289(2) -0.1289(2) 0.1289(2)
H1F H -0.08283 -0.33599 -0.08282
N1B N -0.1289(2) 0.1289(2) -0.1289(2)
H1G H -0.08283 0.33599 0.08282
C1H C 0.0000(4) 0.00000 0.25060
H1H H -0.08282 0.08283 0.33599
C1I C 0.0000(4) 0.00000 -0.25060
H1I H 0.08282 0.08283 -0.33599
H1J H -0.08282 -0.08283 -0.33599
H1K H 0.08282 -0.08283 0.33599
C1A C -0.2506(4) 0.00000 0.00000
H1A H -0.33599 0.08282 0.08283
H1B H -0.33599 -0.08282 -0.08283
#END

data_CSD_CIF_QAMCAM11
_audit_creation_date 2020-12-18
_audit_creation_method CSD-ConQuest-V1
_database_code_CSD QAMCAM11
_database_code_depnum_ccdc_archive 'CCDC 1982568'
_chemical_formula_sum 'C6 H12 N4'
_chemical_formula_moiety
;
C6 H12 N4
;
_journal_coden_Cambridge 1220
_journal_volume 27
_journal_year 2020
_journal_page_first 1094
_journal_name_full 'Chem.-Eur.J. '
loop_
_publ_author_name
"P.A.Gunka"
"A.Olejniczak"
"S.Fanetti"
"R.Bini"
"I.E.Collings"
"V.Svitlyk"
"K.F.Dziubek"
_chemical_name_systematic
;
1,3,5,7-tetraazatricyclo[3.3.1.1^3,7^]decane
;
_chemical_name_common
;
hexamethylenetetramine; urotropine
;
_cell_volume    297.516
_exptl_crystal_colour 'colorless'
_exptl_crystal_density_diffrn 1.565
_exptl_crystal_description 'block'
_diffrn_ambient_temperature 293
_diffrn_ambient_pressure 2630000.0
_diffrn_radiation_probe x-ray
_diffrn_source synchrotron
#These two values have been output from a single CSD field.
_refine_ls_R_factor_gt 0.0423
_refine_ls_wR_factor_gt 0.0423
_symmetry_cell_setting cubic
_symmetry_space_group_name_H-M 'I -4 3 m'
_symmetry_Int_Tables_number 217
loop_
_symmetry_equiv_pos_site_id
_symmetry_equiv_pos_as_xyz
1 x,y,z
2 y,-x,-z
3 -x,-y,z
4 -y,x,-z
5 -x,z,-y
6 x,-y,-z
7 -x,-z,y
8 -z,-y,x
9 -x,y,-z
10 z,-y,-x
11 z,x,y
12 y,z,x
13 -y,-z,x
14 z,-x,-y
15 -y,z,-x
16 -z,-x,y
17 -z,x,-y
18 y,-z,-x
19 -y,-x,z
20 y,x,z
21 x,-z,-y
22 x,z,y
23 -z,y,-x
24 z,y,x
25 1/2+x,1/2+y,1/2+z
26 1/2+y,1/2-x,1/2-z
27 1/2-x,1/2-y,1/2+z
28 1/2-y,1/2+x,1/2-z
29 1/2-x,1/2+z,1/2-y
30 1/2+x,1/2-y,1/2-z
31 1/2-x,1/2-z,1/2+y
32 1/2-z,1/2-y,1/2+x
33 1/2-x,1/2+y,1/2-z
34 1/2+z,1/2-y,1/2-x
35 1/2+z,1/2+x,1/2+y
36 1/2+y,1/2+z,1/2+x
37 1/2-y,1/2-z,1/2+x
38 1/2+z,1/2-x,1/2-y
39 1/2-y,1/2+z,1/2-x
40 1/2-z,1/2-x,1/2+y
41 1/2-z,1/2+x,1/2-y
42 1/2+y,1/2-z,1/2-x
43 1/2-y,1/2-x,1/2+z
44 1/2+y,1/2+x,1/2+z
45 1/2+x,1/2-z,1/2-y
46 1/2+x,1/2+z,1/2+y
47 1/2-z,1/2+y,1/2-x
48 1/2+z,1/2+y,1/2+x
_cell_length_a 6.6758(1)
_cell_length_b 6.6758(1)
_cell_length_c 6.6758(1)
_cell_angle_alpha 90
_cell_angle_beta 90
_cell_angle_gamma 90
_cell_formula_units_Z 2
loop_
_atom_type_symbol
_atom_type_radius_bond
C 0.68
H 0.23
N 0.68
loop_
_atom_site_label
_atom_site_type_symbol
_atom_site_fract_x
_atom_site_fract_y
_atom_site_fract_z
N1 N 0.1290(2) 0.1290(2) 0.1290(2)
C1 C 0.2514(4) 0.00000 0.00000
H1 H 0.33692 0.08305 -0.08305
N1A N 0.1290(2) -0.1290(2) -0.1290(2)
C1A C 0.0000(4) -0.25140 0.00000
H1A H 0.08305 -0.33692 0.08305
N1B N -0.1290(2) -0.1290(2) 0.1290(2)
C1B C -0.2514(4) 0.00000 0.00000
H1B H -0.33692 -0.08305 -0.08305
N1C N -0.1290(2) 0.1290(2) -0.1290(2)
C1C C 0.0000(4) 0.25140 0.00000
H1C H -0.08305 0.33692 0.08305
H1E H 0.33692 -0.08305 0.08305
H1F H -0.33692 0.08305 0.08305
C1G C 0.0000(4) 0.00000 0.25140
H1G H 0.08305 -0.08305 0.33692
C1I C 0.0000(4) 0.00000 -0.25140
H1I H -0.08305 -0.08305 -0.33692
H1L H -0.08305 0.08305 0.33692
H1M H -0.08305 -0.33692 -0.08305
H1P H 0.08305 0.33692 -0.08305
H1Q H 0.08305 0.08305 -0.33692
#END

data_CSD_CIF_QAMCAM12
_audit_creation_date 2020-12-18
_audit_creation_method CSD-ConQuest-V1
_database_code_CSD QAMCAM12
_database_code_depnum_ccdc_archive 'CCDC 1982569'
_chemical_formula_sum 'C6 H12 N4'
_chemical_formula_moiety
;
C6 H12 N4
;
_journal_coden_Cambridge 1220
_journal_volume 27
_journal_year 2020
_journal_page_first 1094
_journal_name_full 'Chem.-Eur.J. '
loop_
_publ_author_name
"P.A.Gunka"
"A.Olejniczak"
"S.Fanetti"
"R.Bini"
"I.E.Collings"
"V.Svitlyk"
"K.F.Dziubek"
_chemical_name_systematic
;
1,3,5,7-tetraazatricyclo[3.3.1.1^3,7^]decane
;
_chemical_name_common
;
hexamethylenetetramine; urotropine
;
_cell_volume    296.314
_exptl_crystal_colour 'colorless'
_exptl_crystal_density_diffrn 1.571
_exptl_crystal_description 'block'
_diffrn_ambient_temperature 293
_diffrn_ambient_pressure 2820000.0
_diffrn_radiation_probe x-ray
_diffrn_source synchrotron
#These two values have been output from a single CSD field.
_refine_ls_R_factor_gt 0.0351
_refine_ls_wR_factor_gt 0.0351
_symmetry_cell_setting cubic
_symmetry_space_group_name_H-M 'I -4 3 m'
_symmetry_Int_Tables_number 217
loop_
_symmetry_equiv_pos_site_id
_symmetry_equiv_pos_as_xyz
1 x,y,z
2 -x,-y,z
3 -x,y,-z
4 x,-y,-z
5 z,x,y
6 z,-x,-y
7 -z,-x,y
8 -z,x,-y
9 y,z,x
10 -y,z,-x
11 y,-z,-x
12 -y,-z,x
13 y,x,z
14 -y,-x,z
15 y,-x,-z
16 -y,x,-z
17 x,z,y
18 -x,z,-y
19 -x,-z,y
20 x,-z,-y
21 z,y,x
22 z,-y,-x
23 -z,y,-x
24 -z,-y,x
25 1/2+x,1/2+y,1/2+z
26 1/2-x,1/2-y,1/2+z
27 1/2-x,1/2+y,1/2-z
28 1/2+x,1/2-y,1/2-z
29 1/2+z,1/2+x,1/2+y
30 1/2+z,1/2-x,1/2-y
31 1/2-z,1/2-x,1/2+y
32 1/2-z,1/2+x,1/2-y
33 1/2+y,1/2+z,1/2+x
34 1/2-y,1/2+z,1/2-x
35 1/2+y,1/2-z,1/2-x
36 1/2-y,1/2-z,1/2+x
37 1/2+y,1/2+x,1/2+z
38 1/2-y,1/2-x,1/2+z
39 1/2+y,1/2-x,1/2-z
40 1/2-y,1/2+x,1/2-z
41 1/2+x,1/2+z,1/2+y
42 1/2-x,1/2+z,1/2-y
43 1/2-x,1/2-z,1/2+y
44 1/2+x,1/2-z,1/2-y
45 1/2+z,1/2+y,1/2+x
46 1/2+z,1/2-y,1/2-x
47 1/2-z,1/2+y,1/2-x
48 1/2-z,1/2-y,1/2+x
_cell_length_a 6.6668(1)
_cell_length_b 6.6668(1)
_cell_length_c 6.6668(1)
_cell_angle_alpha 90
_cell_angle_beta 90
_cell_angle_gamma 90
_cell_formula_units_Z 2
loop_
_atom_type_symbol
_atom_type_radius_bond
C 0.68
H 0.23
N 0.68
loop_
_atom_site_label
_atom_site_type_symbol
_atom_site_fract_x
_atom_site_fract_y
_atom_site_fract_z
N1 N 0.1293(2) 0.1293(2) 0.1293(2)
C1 C 0.2517(4) 0.00000 0.00000
H1 H 0.33736 -0.08315 0.08315
N1C N 0.1293(2) -0.1293(2) -0.1293(2)
H1C H 0.33736 0.08315 -0.08315
C1D C 0.0000(4) 0.25170 0.00000
H1D H 0.08315 0.33736 -0.08315
C1E C 0.0000(4) -0.25170 0.00000
H1E H 0.08315 -0.33736 0.08315
N1A N -0.1293(2) -0.1293(2) 0.1293(2)
H1F H -0.08315 -0.33736 -0.08315
N1B N -0.1293(2) 0.1293(2) -0.1293(2)
H1G H -0.08315 0.33736 0.08315
C1H C 0.0000(4) 0.00000 0.25170
H1H H -0.08315 0.08315 0.33736
C1I C 0.0000(4) 0.00000 -0.25170
H1I H 0.08315 0.08315 -0.33736
H1J H -0.08315 -0.08315 -0.33736
H1K H 0.08315 -0.08315 0.33736
C1A C -0.2517(4) 0.00000 0.00000
H1A H -0.33736 0.08315 0.08315
H1B H -0.33736 -0.08315 -0.08315
#END

data_CSD_CIF_QAMCAM13
_audit_creation_date 2020-12-18
_audit_creation_method CSD-ConQuest-V1
_database_code_CSD QAMCAM13
_database_code_depnum_ccdc_archive 'CCDC 1982570'
_chemical_formula_sum 'C6 H12 N4'
_chemical_formula_moiety
;
C6 H12 N4
;
_journal_coden_Cambridge 1220
_journal_volume 27
_journal_year 2020
_journal_page_first 1094
_journal_name_full 'Chem.-Eur.J. '
loop_
_publ_author_name
"P.A.Gunka"
"A.Olejniczak"
"S.Fanetti"
"R.Bini"
"I.E.Collings"
"V.Svitlyk"
"K.F.Dziubek"
_chemical_name_systematic
;
1,3,5,7-tetraazatricyclo[3.3.1.1^3,7^]decane
;
_chemical_name_common
;
hexamethylenetetramine; urotropine
;
_cell_volume    294.173
_exptl_crystal_colour 'colorless'
_exptl_crystal_density_diffrn 1.583
_exptl_crystal_description 'block'
_diffrn_ambient_temperature 293
_diffrn_ambient_pressure 3010000.0
_diffrn_radiation_probe x-ray
_diffrn_source synchrotron
#These two values have been output from a single CSD field.
_refine_ls_R_factor_gt 0.037
_refine_ls_wR_factor_gt 0.037
_symmetry_cell_setting cubic
_symmetry_space_group_name_H-M 'I -4 3 m'
_symmetry_Int_Tables_number 217
loop_
_symmetry_equiv_pos_site_id
_symmetry_equiv_pos_as_xyz
1 x,y,z
2 -x,-y,z
3 -x,y,-z
4 x,-y,-z
5 z,x,y
6 z,-x,-y
7 -z,-x,y
8 -z,x,-y
9 y,z,x
10 -y,z,-x
11 y,-z,-x
12 -y,-z,x
13 y,x,z
14 -y,-x,z
15 y,-x,-z
16 -y,x,-z
17 x,z,y
18 -x,z,-y
19 -x,-z,y
20 x,-z,-y
21 z,y,x
22 z,-y,-x
23 -z,y,-x
24 -z,-y,x
25 1/2+x,1/2+y,1/2+z
26 1/2-x,1/2-y,1/2+z
27 1/2-x,1/2+y,1/2-z
28 1/2+x,1/2-y,1/2-z
29 1/2+z,1/2+x,1/2+y
30 1/2+z,1/2-x,1/2-y
31 1/2-z,1/2-x,1/2+y
32 1/2-z,1/2+x,1/2-y
33 1/2+y,1/2+z,1/2+x
34 1/2-y,1/2+z,1/2-x
35 1/2+y,1/2-z,1/2-x
36 1/2-y,1/2-z,1/2+x
37 1/2+y,1/2+x,1/2+z
38 1/2-y,1/2-x,1/2+z
39 1/2+y,1/2-x,1/2-z
40 1/2-y,1/2+x,1/2-z
41 1/2+x,1/2+z,1/2+y
42 1/2-x,1/2+z,1/2-y
43 1/2-x,1/2-z,1/2+y
44 1/2+x,1/2-z,1/2-y
45 1/2+z,1/2+y,1/2+x
46 1/2+z,1/2-y,1/2-x
47 1/2-z,1/2+y,1/2-x
48 1/2-z,1/2-y,1/2+x
_cell_length_a 6.6507(2)
_cell_length_b 6.6507(2)
_cell_length_c 6.6507(2)
_cell_angle_alpha 90
_cell_angle_beta 90
_cell_angle_gamma 90
_cell_formula_units_Z 2
loop_
_atom_type_symbol
_atom_type_radius_bond
C 0.68
H 0.23
N 0.68
loop_
_atom_site_label
_atom_site_type_symbol
_atom_site_fract_x
_atom_site_fract_y
_atom_site_fract_z
N1 N 0.1297(2) 0.1297(2) 0.1297(2)
C1 C 0.2521(3) 0.00000 0.00000
H1 H 0.33804 -0.08335 0.08335
N1C N 0.1297(2) -0.1297(2) -0.1297(2)
H1C H 0.33804 0.08335 -0.08335
C1D C 0.0000(3) 0.25210 0.00000
H1D H 0.08335 0.33804 -0.08335
C1E C 0.0000(3) -0.25210 0.00000
H1E H 0.08335 -0.33804 0.08335
N1A N -0.1297(2) -0.1297(2) 0.1297(2)
H1F H -0.08335 -0.33804 -0.08335
N1B N -0.1297(2) 0.1297(2) -0.1297(2)
H1G H -0.08335 0.33804 0.08335
C1H C 0.0000(3) 0.00000 0.25210
H1H H -0.08335 0.08335 0.33804
C1I C 0.0000(3) 0.00000 -0.25210
H1I H 0.08335 0.08335 -0.33804
H1J H -0.08335 -0.08335 -0.33804
H1K H 0.08335 -0.08335 0.33804
C1A C -0.2521(3) 0.00000 0.00000
H1A H -0.33804 0.08335 0.08335
H1B H -0.33804 -0.08335 -0.08335
#END

data_CSD_CIF_QAMCAM14
_audit_creation_date 2020-12-18
_audit_creation_method CSD-ConQuest-V1
_database_code_CSD QAMCAM14
_database_code_depnum_ccdc_archive 'CCDC 1982571'
_chemical_formula_sum 'C6 H12 N4'
_chemical_formula_moiety
;
C6 H12 N4
;
_journal_coden_Cambridge 1220
_journal_volume 27
_journal_year 2020
_journal_page_first 1094
_journal_name_full 'Chem.-Eur.J. '
loop_
_publ_author_name
"P.A.Gunka"
"A.Olejniczak"
"S.Fanetti"
"R.Bini"
"I.E.Collings"
"V.Svitlyk"
"K.F.Dziubek"
_chemical_name_systematic
;
1,3,5,7-tetraazatricyclo[3.3.1.1^3,7^]decane
;
_chemical_name_common
;
hexamethylenetetramine; urotropine
;
_cell_volume    292.119
_exptl_crystal_colour 'colorless'
_exptl_crystal_density_diffrn 1.594
_exptl_crystal_description 'block'
_diffrn_ambient_temperature 293
_diffrn_ambient_pressure 3260000.0
_diffrn_radiation_probe x-ray
_diffrn_source synchrotron
#These two values have been output from a single CSD field.
_refine_ls_R_factor_gt 0.0399
_refine_ls_wR_factor_gt 0.0399
_symmetry_cell_setting cubic
_symmetry_space_group_name_H-M 'I -4 3 m'
_symmetry_Int_Tables_number 217
loop_
_symmetry_equiv_pos_site_id
_symmetry_equiv_pos_as_xyz
1 x,y,z
2 -x,-y,z
3 -x,y,-z
4 x,-y,-z
5 z,x,y
6 z,-x,-y
7 -z,-x,y
8 -z,x,-y
9 y,z,x
10 -y,z,-x
11 y,-z,-x
12 -y,-z,x
13 y,x,z
14 -y,-x,z
15 y,-x,-z
16 -y,x,-z
17 x,z,y
18 -x,z,-y
19 -x,-z,y
20 x,-z,-y
21 z,y,x
22 z,-y,-x
23 -z,y,-x
24 -z,-y,x
25 1/2+x,1/2+y,1/2+z
26 1/2-x,1/2-y,1/2+z
27 1/2-x,1/2+y,1/2-z
28 1/2+x,1/2-y,1/2-z
29 1/2+z,1/2+x,1/2+y
30 1/2+z,1/2-x,1/2-y
31 1/2-z,1/2-x,1/2+y
32 1/2-z,1/2+x,1/2-y
33 1/2+y,1/2+z,1/2+x
34 1/2-y,1/2+z,1/2-x
35 1/2+y,1/2-z,1/2-x
36 1/2-y,1/2-z,1/2+x
37 1/2+y,1/2+x,1/2+z
38 1/2-y,1/2-x,1/2+z
39 1/2+y,1/2-x,1/2-z
40 1/2-y,1/2+x,1/2-z
41 1/2+x,1/2+z,1/2+y
42 1/2-x,1/2+z,1/2-y
43 1/2-x,1/2-z,1/2+y
44 1/2+x,1/2-z,1/2-y
45 1/2+z,1/2+y,1/2+x
46 1/2+z,1/2-y,1/2-x
47 1/2-z,1/2+y,1/2-x
48 1/2-z,1/2-y,1/2+x
_cell_length_a 6.63519(12)
_cell_length_b 6.63519(12)
_cell_length_c 6.63519(12)
_cell_angle_alpha 90
_cell_angle_beta 90
_cell_angle_gamma 90
_cell_formula_units_Z 2
loop_
_atom_type_symbol
_atom_type_radius_bond
C 0.68
H 0.23
N 0.68
loop_
_atom_site_label
_atom_site_type_symbol
_atom_site_fract_x
_atom_site_fract_y
_atom_site_fract_z
N1 N 0.1302(2) 0.1302(2) 0.1302(2)
C1 C 0.2529(4) 0.00000 0.00000
H1 H 0.33898 0.08354 -0.08354
N1C N 0.1302(2) -0.1302(2) -0.1302(2)
H1C H 0.33898 -0.08354 0.08354
C1D C 0.0000(4) 0.25290 0.00000
H1D H -0.08354 0.33898 0.08354
C1E C 0.0000(4) -0.25290 0.00000
H1E H -0.08354 -0.33898 -0.08354
N1A N -0.1302(2) -0.1302(2) 0.1302(2)
H1F H 0.08354 -0.33898 0.08354
N1B N -0.1302(2) 0.1302(2) -0.1302(2)
H1G H 0.08354 0.33898 -0.08354
C1H C 0.0000(4) 0.00000 0.25290
H1H H 0.08354 -0.08354 0.33898
C1I C 0.0000(4) 0.00000 -0.25290
H1I H -0.08354 -0.08354 -0.33898
H1J H 0.08354 0.08354 -0.33898
H1K H -0.08354 0.08354 0.33898
C1A C -0.2529(4) 0.00000 0.00000
H1A H -0.33898 -0.08354 -0.08354
H1B H -0.33898 0.08354 0.08354
#END

data_CSD_CIF_QAMCAM15
_audit_creation_date 2020-12-18
_audit_creation_method CSD-ConQuest-V1
_database_code_CSD QAMCAM15
_database_code_depnum_ccdc_archive 'CCDC 1982572'
_chemical_formula_sum 'C6 H12 N4'
_chemical_formula_moiety
;
C6 H12 N4
;
_journal_coden_Cambridge 1220
_journal_volume 27
_journal_year 2020
_journal_page_first 1094
_journal_name_full 'Chem.-Eur.J. '
loop_
_publ_author_name
"P.A.Gunka"
"A.Olejniczak"
"S.Fanetti"
"R.Bini"
"I.E.Collings"
"V.Svitlyk"
"K.F.Dziubek"
_chemical_name_systematic
;
1,3,5,7-tetraazatricyclo[3.3.1.1^3,7^]decane
;
_chemical_name_common
;
hexamethylenetetramine; urotropine
;
_cell_volume    290.446
_exptl_crystal_colour 'colorless'
_exptl_crystal_density_diffrn 1.603
_exptl_crystal_description 'block'
_diffrn_ambient_temperature 293
_diffrn_ambient_pressure 3460000.0
_diffrn_radiation_probe x-ray
_diffrn_source synchrotron
#These two values have been output from a single CSD field.
_refine_ls_R_factor_gt 0.0399
_refine_ls_wR_factor_gt 0.0399
_symmetry_cell_setting cubic
_symmetry_space_group_name_H-M 'I -4 3 m'
_symmetry_Int_Tables_number 217
loop_
_symmetry_equiv_pos_site_id
_symmetry_equiv_pos_as_xyz
1 x,y,z
2 -x,-y,z
3 -x,y,-z
4 x,-y,-z
5 z,x,y
6 z,-x,-y
7 -z,-x,y
8 -z,x,-y
9 y,z,x
10 -y,z,-x
11 y,-z,-x
12 -y,-z,x
13 y,x,z
14 -y,-x,z
15 y,-x,-z
16 -y,x,-z
17 x,z,y
18 -x,z,-y
19 -x,-z,y
20 x,-z,-y
21 z,y,x
22 z,-y,-x
23 -z,y,-x
24 -z,-y,x
25 1/2+x,1/2+y,1/2+z
26 1/2-x,1/2-y,1/2+z
27 1/2-x,1/2+y,1/2-z
28 1/2+x,1/2-y,1/2-z
29 1/2+z,1/2+x,1/2+y
30 1/2+z,1/2-x,1/2-y
31 1/2-z,1/2-x,1/2+y
32 1/2-z,1/2+x,1/2-y
33 1/2+y,1/2+z,1/2+x
34 1/2-y,1/2+z,1/2-x
35 1/2+y,1/2-z,1/2-x
36 1/2-y,1/2-z,1/2+x
37 1/2+y,1/2+x,1/2+z
38 1/2-y,1/2-x,1/2+z
39 1/2+y,1/2-x,1/2-z
40 1/2-y,1/2+x,1/2-z
41 1/2+x,1/2+z,1/2+y
42 1/2-x,1/2+z,1/2-y
43 1/2-x,1/2-z,1/2+y
44 1/2+x,1/2-z,1/2-y
45 1/2+z,1/2+y,1/2+x
46 1/2+z,1/2-y,1/2-x
47 1/2-z,1/2+y,1/2-x
48 1/2-z,1/2-y,1/2+x
_cell_length_a 6.6225(1)
_cell_length_b 6.6225(1)
_cell_length_c 6.6225(1)
_cell_angle_alpha 90
_cell_angle_beta 90
_cell_angle_gamma 90
_cell_formula_units_Z 2
loop_
_atom_type_symbol
_atom_type_radius_bond
C 0.68
H 0.23
N 0.68
loop_
_atom_site_label
_atom_site_type_symbol
_atom_site_fract_x
_atom_site_fract_y
_atom_site_fract_z
N1 N 0.1304(2) 0.1304(2) 0.1304(2)
C1 C 0.2532(4) 0.00000 0.00000
H1 H 0.33944 0.08369 -0.08369
N1C N 0.1304(2) -0.1304(2) -0.1304(2)
H1C H 0.33944 -0.08369 0.08369
C1D C 0.0000(4) 0.25320 0.00000
H1D H -0.08369 0.33944 0.08369
C1E C 0.0000(4) -0.25320 0.00000
H1E H -0.08369 -0.33944 -0.08369
N1A N -0.1304(2) -0.1304(2) 0.1304(2)
H1F H 0.08369 -0.33944 0.08369
N1B N -0.1304(2) 0.1304(2) -0.1304(2)
H1G H 0.08369 0.33944 -0.08369
C1H C 0.0000(4) 0.00000 0.25320
H1H H 0.08369 -0.08369 0.33944
C1I C 0.0000(4) 0.00000 -0.25320
H1I H -0.08369 -0.08369 -0.33944
H1J H 0.08369 0.08369 -0.33944
H1K H -0.08369 0.08369 0.33944
C1A C -0.2532(4) 0.00000 0.00000
H1A H -0.33944 -0.08369 -0.08369
H1B H -0.33944 0.08369 0.08369
#END

data_CSD_CIF_QAMCAM16
_audit_creation_date 2020-12-18
_audit_creation_method CSD-ConQuest-V1
_database_code_CSD QAMCAM16
_database_code_depnum_ccdc_archive 'CCDC 1982573'
_chemical_formula_sum 'C6 H12 N4'
_chemical_formula_moiety
;
C6 H12 N4
;
_journal_coden_Cambridge 1220
_journal_volume 27
_journal_year 2020
_journal_page_first 1094
_journal_name_full 'Chem.-Eur.J. '
loop_
_publ_author_name
"P.A.Gunka"
"A.Olejniczak"
"S.Fanetti"
"R.Bini"
"I.E.Collings"
"V.Svitlyk"
"K.F.Dziubek"
_chemical_name_systematic
;
1,3,5,7-tetraazatricyclo[3.3.1.1^3,7^]decane
;
_chemical_name_common
;
hexamethylenetetramine; urotropine
;
_cell_volume    288.608
_exptl_crystal_colour 'colorless'
_exptl_crystal_density_diffrn 1.613
_exptl_crystal_description 'block'
_diffrn_ambient_temperature 293
_diffrn_ambient_pressure 3680000.0
_diffrn_radiation_probe x-ray
_diffrn_source synchrotron
#These two values have been output from a single CSD field.
_refine_ls_R_factor_gt 0.0361
_refine_ls_wR_factor_gt 0.0361
_symmetry_cell_setting cubic
_symmetry_space_group_name_H-M 'I -4 3 m'
_symmetry_Int_Tables_number 217
loop_
_symmetry_equiv_pos_site_id
_symmetry_equiv_pos_as_xyz
1 x,y,z
2 -x,-y,z
3 -x,y,-z
4 x,-y,-z
5 z,x,y
6 z,-x,-y
7 -z,-x,y
8 -z,x,-y
9 y,z,x
10 -y,z,-x
11 y,-z,-x
12 -y,-z,x
13 y,x,z
14 -y,-x,z
15 y,-x,-z
16 -y,x,-z
17 x,z,y
18 -x,z,-y
19 -x,-z,y
20 x,-z,-y
21 z,y,x
22 z,-y,-x
23 -z,y,-x
24 -z,-y,x
25 1/2+x,1/2+y,1/2+z
26 1/2-x,1/2-y,1/2+z
27 1/2-x,1/2+y,1/2-z
28 1/2+x,1/2-y,1/2-z
29 1/2+z,1/2+x,1/2+y
30 1/2+z,1/2-x,1/2-y
31 1/2-z,1/2-x,1/2+y
32 1/2-z,1/2+x,1/2-y
33 1/2+y,1/2+z,1/2+x
34 1/2-y,1/2+z,1/2-x
35 1/2+y,1/2-z,1/2-x
36 1/2-y,1/2-z,1/2+x
37 1/2+y,1/2+x,1/2+z
38 1/2-y,1/2-x,1/2+z
39 1/2+y,1/2-x,1/2-z
40 1/2-y,1/2+x,1/2-z
41 1/2+x,1/2+z,1/2+y
42 1/2-x,1/2+z,1/2-y
43 1/2-x,1/2-z,1/2+y
44 1/2+x,1/2-z,1/2-y
45 1/2+z,1/2+y,1/2+x
46 1/2+z,1/2-y,1/2-x
47 1/2-z,1/2+y,1/2-x
48 1/2-z,1/2-y,1/2+x
_cell_length_a 6.6085(1)
_cell_length_b 6.6085(1)
_cell_length_c 6.6085(1)
_cell_angle_alpha 90
_cell_angle_beta 90
_cell_angle_gamma 90
_cell_formula_units_Z 2
loop_
_atom_type_symbol
_atom_type_radius_bond
C 0.68
H 0.23
N 0.68
loop_
_atom_site_label
_atom_site_type_symbol
_atom_site_fract_x
_atom_site_fract_y
_atom_site_fract_z
N1 N 0.1305(2) 0.1305(2) 0.1305(2)
C1 C 0.2537(3) 0.00000 0.00000
H1 H 0.34018 -0.08388 0.08388
N1C N 0.1305(2) -0.1305(2) -0.1305(2)
H1C H 0.34018 0.08388 -0.08388
C1D C 0.0000(3) 0.25370 0.00000
H1D H 0.08388 0.34018 -0.08388
C1E C 0.0000(3) -0.25370 0.00000
H1E H 0.08388 -0.34018 0.08388
N1A N -0.1305(2) -0.1305(2) 0.1305(2)
H1F H -0.08388 -0.34018 -0.08388
N1B N -0.1305(2) 0.1305(2) -0.1305(2)
H1G H -0.08388 0.34018 0.08388
C1H C 0.0000(3) 0.00000 0.25370
H1H H -0.08388 0.08388 0.34018
C1I C 0.0000(3) 0.00000 -0.25370
H1I H 0.08388 0.08388 -0.34018
H1J H -0.08388 -0.08388 -0.34018
H1K H 0.08388 -0.08388 0.34018
C1A C -0.2537(3) 0.00000 0.00000
H1A H -0.34018 0.08388 0.08388
H1B H -0.34018 -0.08388 -0.08388
#END

data_CSD_CIF_QAMCAM17
_audit_creation_date 2020-12-18
_audit_creation_method CSD-ConQuest-V1
_database_code_CSD QAMCAM17
_database_code_depnum_ccdc_archive 'CCDC 1982574'
_chemical_formula_sum 'C6 H12 N4'
_chemical_formula_moiety
;
C6 H12 N4
;
_journal_coden_Cambridge 1220
_journal_volume 27
_journal_year 2020
_journal_page_first 1094
_journal_name_full 'Chem.-Eur.J. '
loop_
_publ_author_name
"P.A.Gunka"
"A.Olejniczak"
"S.Fanetti"
"R.Bini"
"I.E.Collings"
"V.Svitlyk"
"K.F.Dziubek"
_chemical_name_systematic
;
1,3,5,7-tetraazatricyclo[3.3.1.1^3,7^]decane
;
_chemical_name_common
;
hexamethylenetetramine; urotropine
;
_cell_volume    286.784
_exptl_crystal_colour 'colorless'
_exptl_crystal_density_diffrn 1.624
_exptl_crystal_description 'block'
_diffrn_ambient_temperature 293
_diffrn_ambient_pressure 3900000.0
_diffrn_radiation_probe x-ray
_diffrn_source synchrotron
#These two values have been output from a single CSD field.
_refine_ls_R_factor_gt 0.0358
_refine_ls_wR_factor_gt 0.0358
_symmetry_cell_setting cubic
_symmetry_space_group_name_H-M 'I -4 3 m'
_symmetry_Int_Tables_number 217
loop_
_symmetry_equiv_pos_site_id
_symmetry_equiv_pos_as_xyz
1 x,y,z
2 -x,-y,z
3 -x,y,-z
4 x,-y,-z
5 z,x,y
6 z,-x,-y
7 -z,-x,y
8 -z,x,-y
9 y,z,x
10 -y,z,-x
11 y,-z,-x
12 -y,-z,x
13 y,x,z
14 -y,-x,z
15 y,-x,-z
16 -y,x,-z
17 x,z,y
18 -x,z,-y
19 -x,-z,y
20 x,-z,-y
21 z,y,x
22 z,-y,-x
23 -z,y,-x
24 -z,-y,x
25 1/2+x,1/2+y,1/2+z
26 1/2-x,1/2-y,1/2+z
27 1/2-x,1/2+y,1/2-z
28 1/2+x,1/2-y,1/2-z
29 1/2+z,1/2+x,1/2+y
30 1/2+z,1/2-x,1/2-y
31 1/2-z,1/2-x,1/2+y
32 1/2-z,1/2+x,1/2-y
33 1/2+y,1/2+z,1/2+x
34 1/2-y,1/2+z,1/2-x
35 1/2+y,1/2-z,1/2-x
36 1/2-y,1/2-z,1/2+x
37 1/2+y,1/2+x,1/2+z
38 1/2-y,1/2-x,1/2+z
39 1/2+y,1/2-x,1/2-z
40 1/2-y,1/2+x,1/2-z
41 1/2+x,1/2+z,1/2+y
42 1/2-x,1/2+z,1/2-y
43 1/2-x,1/2-z,1/2+y
44 1/2+x,1/2-z,1/2-y
45 1/2+z,1/2+y,1/2+x
46 1/2+z,1/2-y,1/2-x
47 1/2-z,1/2+y,1/2-x
48 1/2-z,1/2-y,1/2+x
_cell_length_a 6.59455(16)
_cell_length_b 6.59455(16)
_cell_length_c 6.59455(16)
_cell_angle_alpha 90
_cell_angle_beta 90
_cell_angle_gamma 90
_cell_formula_units_Z 2
loop_
_atom_type_symbol
_atom_type_radius_bond
C 0.68
H 0.23
N 0.68
loop_
_atom_site_label
_atom_site_type_symbol
_atom_site_fract_x
_atom_site_fract_y
_atom_site_fract_z
N1 N 0.1308(2) 0.1308(2) 0.1308(2)
C1 C 0.2540(3) 0.00000 0.00000
H1 H 0.34062 -0.08405 0.08405
N1C N 0.1308(2) -0.1308(2) -0.1308(2)
H1C H 0.34062 0.08405 -0.08405
C1D C 0.0000(3) 0.25400 0.00000
H1D H 0.08405 0.34062 -0.08405
C1E C 0.0000(3) -0.25400 0.00000
H1E H 0.08405 -0.34062 0.08405
N1A N -0.1308(2) -0.1308(2) 0.1308(2)
H1F H -0.08405 -0.34062 -0.08405
N1B N -0.1308(2) 0.1308(2) -0.1308(2)
H1G H -0.08405 0.34062 0.08405
C1H C 0.0000(3) 0.00000 0.25400
H1H H -0.08405 0.08405 0.34062
C1I C 0.0000(3) 0.00000 -0.25400
H1I H 0.08405 0.08405 -0.34062
H1J H -0.08405 -0.08405 -0.34062
H1K H 0.08405 -0.08405 0.34062
C1A C -0.2540(3) 0.00000 0.00000
H1A H -0.34062 0.08405 0.08405
H1B H -0.34062 -0.08405 -0.08405
#END

data_CSD_CIF_QAMCAM18
_audit_creation_date 2020-12-18
_audit_creation_method CSD-ConQuest-V1
_database_code_CSD QAMCAM18
_database_code_depnum_ccdc_archive 'CCDC 1982575'
_chemical_formula_sum 'C6 H12 N4'
_chemical_formula_moiety
;
C6 H12 N4
;
_journal_coden_Cambridge 1220
_journal_volume 27
_journal_year 2020
_journal_page_first 1094
_journal_name_full 'Chem.-Eur.J. '
loop_
_publ_author_name
"P.A.Gunka"
"A.Olejniczak"
"S.Fanetti"
"R.Bini"
"I.E.Collings"
"V.Svitlyk"
"K.F.Dziubek"
_chemical_name_systematic
;
1,3,5,7-tetraazatricyclo[3.3.1.1^3,7^]decane
;
_chemical_name_common
;
hexamethylenetetramine; urotropine
;
_cell_volume    285.462
_exptl_crystal_colour 'colorless'
_exptl_crystal_density_diffrn 1.631
_exptl_crystal_description 'block'
_diffrn_ambient_temperature 293
_diffrn_ambient_pressure 4090000.0
_diffrn_radiation_probe x-ray
_diffrn_source synchrotron
#These two values have been output from a single CSD field.
_refine_ls_R_factor_gt 0.0469
_refine_ls_wR_factor_gt 0.0469
_symmetry_cell_setting cubic
_symmetry_space_group_name_H-M 'I -4 3 m'
_symmetry_Int_Tables_number 217
loop_
_symmetry_equiv_pos_site_id
_symmetry_equiv_pos_as_xyz
1 x,y,z
2 -x,-y,z
3 -x,y,-z
4 x,-y,-z
5 z,x,y
6 z,-x,-y
7 -z,-x,y
8 -z,x,-y
9 y,z,x
10 -y,z,-x
11 y,-z,-x
12 -y,-z,x
13 y,x,z
14 -y,-x,z
15 y,-x,-z
16 -y,x,-z
17 x,z,y
18 -x,z,-y
19 -x,-z,y
20 x,-z,-y
21 z,y,x
22 z,-y,-x
23 -z,y,-x
24 -z,-y,x
25 1/2+x,1/2+y,1/2+z
26 1/2-x,1/2-y,1/2+z
27 1/2-x,1/2+y,1/2-z
28 1/2+x,1/2-y,1/2-z
29 1/2+z,1/2+x,1/2+y
30 1/2+z,1/2-x,1/2-y
31 1/2-z,1/2-x,1/2+y
32 1/2-z,1/2+x,1/2-y
33 1/2+y,1/2+z,1/2+x
34 1/2-y,1/2+z,1/2-x
35 1/2+y,1/2-z,1/2-x
36 1/2-y,1/2-z,1/2+x
37 1/2+y,1/2+x,1/2+z
38 1/2-y,1/2-x,1/2+z
39 1/2+y,1/2-x,1/2-z
40 1/2-y,1/2+x,1/2-z
41 1/2+x,1/2+z,1/2+y
42 1/2-x,1/2+z,1/2-y
43 1/2-x,1/2-z,1/2+y
44 1/2+x,1/2-z,1/2-y
45 1/2+z,1/2+y,1/2+x
46 1/2+z,1/2-y,1/2-x
47 1/2-z,1/2+y,1/2-x
48 1/2-z,1/2-y,1/2+x
_cell_length_a 6.5844(1)
_cell_length_b 6.5844(1)
_cell_length_c 6.5844(1)
_cell_angle_alpha 90
_cell_angle_beta 90
_cell_angle_gamma 90
_cell_formula_units_Z 2
loop_
_atom_type_symbol
_atom_type_radius_bond
C 0.68
H 0.23
N 0.68
loop_
_atom_site_label
_atom_site_type_symbol
_atom_site_fract_x
_atom_site_fract_y
_atom_site_fract_z
N1 N 0.1309(2) 0.1309(2) 0.1309(2)
C1 C 0.2545(4) 0.00000 0.00000
H1 H 0.34125 0.08419 -0.08419
N1C N 0.1309(2) -0.1309(2) -0.1309(2)
H1C H 0.34125 -0.08419 0.08419
C1D C 0.0000(4) 0.25450 0.00000
H1D H -0.08419 0.34125 0.08419
C1E C 0.0000(4) -0.25450 0.00000
H1E H -0.08419 -0.34125 -0.08419
N1A N -0.1309(2) -0.1309(2) 0.1309(2)
H1F H 0.08419 -0.34125 0.08419
N1B N -0.1309(2) 0.1309(2) -0.1309(2)
H1G H 0.08419 0.34125 -0.08419
C1H C 0.0000(4) 0.00000 0.25450
H1H H 0.08419 -0.08419 0.34125
C1I C 0.0000(4) 0.00000 -0.25450
H1I H -0.08419 -0.08419 -0.34125
H1J H 0.08419 0.08419 -0.34125
H1K H -0.08419 0.08419 0.34125
C1A C -0.2545(4) 0.00000 0.00000
H1A H -0.34125 -0.08419 -0.08419
H1B H -0.34125 0.08419 0.08419
#END

data_CSD_CIF_QAMCAM19
_audit_creation_date 2020-12-18
_audit_creation_method CSD-ConQuest-V1
_database_code_CSD QAMCAM19
_database_code_depnum_ccdc_archive 'CCDC 1982576'
_chemical_formula_sum 'C6 H12 N4'
_chemical_formula_moiety
;
C6 H12 N4
;
_journal_coden_Cambridge 1220
_journal_volume 27
_journal_year 2020
_journal_page_first 1094
_journal_name_full 'Chem.-Eur.J. '
loop_
_publ_author_name
"P.A.Gunka"
"A.Olejniczak"
"S.Fanetti"
"R.Bini"
"I.E.Collings"
"V.Svitlyk"
"K.F.Dziubek"
_chemical_name_systematic
;
1,3,5,7-tetraazatricyclo[3.3.1.1^3,7^]decane
;
_chemical_name_common
;
hexamethylenetetramine; urotropine
;
_cell_volume    282.765
_exptl_crystal_colour 'colorless'
_exptl_crystal_density_diffrn 1.647
_exptl_crystal_description 'block'
_diffrn_ambient_temperature 293
_diffrn_ambient_pressure 4510000.0
_diffrn_radiation_probe x-ray
_diffrn_source synchrotron
#These two values have been output from a single CSD field.
_refine_ls_R_factor_gt 0.0417
_refine_ls_wR_factor_gt 0.0417
_symmetry_cell_setting cubic
_symmetry_space_group_name_H-M 'I -4 3 m'
_symmetry_Int_Tables_number 217
loop_
_symmetry_equiv_pos_site_id
_symmetry_equiv_pos_as_xyz
1 x,y,z
2 -x,-y,z
3 -x,y,-z
4 x,-y,-z
5 z,x,y
6 z,-x,-y
7 -z,-x,y
8 -z,x,-y
9 y,z,x
10 -y,z,-x
11 y,-z,-x
12 -y,-z,x
13 y,x,z
14 -y,-x,z
15 y,-x,-z
16 -y,x,-z
17 x,z,y
18 -x,z,-y
19 -x,-z,y
20 x,-z,-y
21 z,y,x
22 z,-y,-x
23 -z,y,-x
24 -z,-y,x
25 1/2+x,1/2+y,1/2+z
26 1/2-x,1/2-y,1/2+z
27 1/2-x,1/2+y,1/2-z
28 1/2+x,1/2-y,1/2-z
29 1/2+z,1/2+x,1/2+y
30 1/2+z,1/2-x,1/2-y
31 1/2-z,1/2-x,1/2+y
32 1/2-z,1/2+x,1/2-y
33 1/2+y,1/2+z,1/2+x
34 1/2-y,1/2+z,1/2-x
35 1/2+y,1/2-z,1/2-x
36 1/2-y,1/2-z,1/2+x
37 1/2+y,1/2+x,1/2+z
38 1/2-y,1/2-x,1/2+z
39 1/2+y,1/2-x,1/2-z
40 1/2-y,1/2+x,1/2-z
41 1/2+x,1/2+z,1/2+y
42 1/2-x,1/2+z,1/2-y
43 1/2-x,1/2-z,1/2+y
44 1/2+x,1/2-z,1/2-y
45 1/2+z,1/2+y,1/2+x
46 1/2+z,1/2-y,1/2-x
47 1/2-z,1/2+y,1/2-x
48 1/2-z,1/2-y,1/2+x
_cell_length_a 6.5636(1)
_cell_length_b 6.5636(1)
_cell_length_c 6.5636(1)
_cell_angle_alpha 90
_cell_angle_beta 90
_cell_angle_gamma 90
_cell_formula_units_Z 2
loop_
_atom_type_symbol
_atom_type_radius_bond
C 0.68
H 0.23
N 0.68
loop_
_atom_site_label
_atom_site_type_symbol
_atom_site_fract_x
_atom_site_fract_y
_atom_site_fract_z
N1 N 0.1315(2) 0.1315(2) 0.1315(2)
C1 C 0.2552(4) 0.00000 0.00000
H1 H 0.34226 -0.08444 0.08444
N1C N 0.1315(2) -0.1315(2) -0.1315(2)
H1C H 0.34226 0.08444 -0.08444
C1D C 0.0000(4) 0.25520 0.00000
H1D H 0.08444 0.34226 -0.08444
C1E C 0.0000(4) -0.25520 0.00000
H1E H 0.08444 -0.34226 0.08444
N1A N -0.1315(2) -0.1315(2) 0.1315(2)
H1F H -0.08444 -0.34226 -0.08444
N1B N -0.1315(2) 0.1315(2) -0.1315(2)
H1G H -0.08444 0.34226 0.08444
C1H C 0.0000(4) 0.00000 0.25520
H1H H -0.08444 0.08444 0.34226
C1I C 0.0000(4) 0.00000 -0.25520
H1I H 0.08444 0.08444 -0.34226
H1J H -0.08444 -0.08444 -0.34226
H1K H 0.08444 -0.08444 0.34226
C1A C -0.2552(4) 0.00000 0.00000
H1A H -0.34226 0.08444 0.08444
H1B H -0.34226 -0.08444 -0.08444
#END

data_CSD_CIF_QAMCAM20
_audit_creation_date 2020-12-18
_audit_creation_method CSD-ConQuest-V1
_database_code_CSD QAMCAM20
_database_code_depnum_ccdc_archive 'CCDC 1982577'
_chemical_formula_sum 'C6 H12 N4'
_chemical_formula_moiety
;
C6 H12 N4
;
_journal_coden_Cambridge 1220
_journal_volume 27
_journal_year 2020
_journal_page_first 1094
_journal_name_full 'Chem.-Eur.J. '
loop_
_publ_author_name
"P.A.Gunka"
"A.Olejniczak"
"S.Fanetti"
"R.Bini"
"I.E.Collings"
"V.Svitlyk"
"K.F.Dziubek"
_chemical_name_systematic
;
1,3,5,7-tetraazatricyclo[3.3.1.1^3,7^]decane
;
_chemical_name_common
;
hexamethylenetetramine; urotropine
;
_cell_volume    279.778
_exptl_crystal_colour 'colorless'
_exptl_crystal_density_diffrn 1.664
_exptl_crystal_description 'block'
_diffrn_ambient_temperature 293
_diffrn_ambient_pressure 4980000.0
_diffrn_radiation_probe x-ray
_diffrn_source synchrotron
#These two values have been output from a single CSD field.
_refine_ls_R_factor_gt 0.0442
_refine_ls_wR_factor_gt 0.0442
_symmetry_cell_setting cubic
_symmetry_space_group_name_H-M 'I -4 3 m'
_symmetry_Int_Tables_number 217
loop_
_symmetry_equiv_pos_site_id
_symmetry_equiv_pos_as_xyz
1 x,y,z
2 -x,-y,z
3 -x,y,-z
4 x,-y,-z
5 z,x,y
6 z,-x,-y
7 -z,-x,y
8 -z,x,-y
9 y,z,x
10 -y,z,-x
11 y,-z,-x
12 -y,-z,x
13 y,x,z
14 -y,-x,z
15 y,-x,-z
16 -y,x,-z
17 x,z,y
18 -x,z,-y
19 -x,-z,y
20 x,-z,-y
21 z,y,x
22 z,-y,-x
23 -z,y,-x
24 -z,-y,x
25 1/2+x,1/2+y,1/2+z
26 1/2-x,1/2-y,1/2+z
27 1/2-x,1/2+y,1/2-z
28 1/2+x,1/2-y,1/2-z
29 1/2+z,1/2+x,1/2+y
30 1/2+z,1/2-x,1/2-y
31 1/2-z,1/2-x,1/2+y
32 1/2-z,1/2+x,1/2-y
33 1/2+y,1/2+z,1/2+x
34 1/2-y,1/2+z,1/2-x
35 1/2+y,1/2-z,1/2-x
36 1/2-y,1/2-z,1/2+x
37 1/2+y,1/2+x,1/2+z
38 1/2-y,1/2-x,1/2+z
39 1/2+y,1/2-x,1/2-z
40 1/2-y,1/2+x,1/2-z
41 1/2+x,1/2+z,1/2+y
42 1/2-x,1/2+z,1/2-y
43 1/2-x,1/2-z,1/2+y
44 1/2+x,1/2-z,1/2-y
45 1/2+z,1/2+y,1/2+x
46 1/2+z,1/2-y,1/2-x
47 1/2-z,1/2+y,1/2-x
48 1/2-z,1/2-y,1/2+x
_cell_length_a 6.5404(2)
_cell_length_b 6.5404(2)
_cell_length_c 6.5404(2)
_cell_angle_alpha 90
_cell_angle_beta 90
_cell_angle_gamma 90
_cell_formula_units_Z 2
loop_
_atom_type_symbol
_atom_type_radius_bond
C 0.68
H 0.23
N 0.68
loop_
_atom_site_label
_atom_site_type_symbol
_atom_site_fract_x
_atom_site_fract_y
_atom_site_fract_z
N1 N 0.1317(2) 0.1317(2) 0.1317(2)
C1 C 0.2561(4) 0.00000 0.00000
H1 H 0.34343 -0.08475 0.08476
N1C N 0.1317(2) -0.1317(2) -0.1317(2)
H1C H 0.34343 0.08475 -0.08476
C1D C 0.0000(4) 0.25610 0.00000
H1D H 0.08476 0.34343 -0.08475
C1E C 0.0000(4) -0.25610 0.00000
H1E H 0.08476 -0.34343 0.08475
N1A N -0.1317(2) -0.1317(2) 0.1317(2)
H1F H -0.08476 -0.34343 -0.08475
N1B N -0.1317(2) 0.1317(2) -0.1317(2)
H1G H -0.08476 0.34343 0.08475
C1H C 0.0000(4) 0.00000 0.25610
H1H H -0.08475 0.08476 0.34343
C1I C 0.0000(4) 0.00000 -0.25610
H1I H 0.08475 0.08476 -0.34343
H1J H -0.08475 -0.08476 -0.34343
H1K H 0.08475 -0.08476 0.34343
C1A C -0.2561(4) 0.00000 0.00000
H1A H -0.34343 0.08475 0.08476
H1B H -0.34343 -0.08475 -0.08476
#END

data_CSD_CIF_QAMCAM21
_audit_creation_date 2020-12-18
_audit_creation_method CSD-ConQuest-V1
_database_code_CSD QAMCAM21
_database_code_depnum_ccdc_archive 'CCDC 1982578'
_chemical_formula_sum 'C6 H12 N4'
_chemical_formula_moiety
;
C6 H12 N4
;
_journal_coden_Cambridge 1220
_journal_volume 27
_journal_year 2020
_journal_page_first 1094
_journal_name_full 'Chem.-Eur.J. '
loop_
_publ_author_name
"P.A.Gunka"
"A.Olejniczak"
"S.Fanetti"
"R.Bini"
"I.E.Collings"
"V.Svitlyk"
"K.F.Dziubek"
_chemical_name_systematic
;
1,3,5,7-tetraazatricyclo[3.3.1.1^3,7^]decane
;
_chemical_name_common
;
hexamethylenetetramine; urotropine
;
_cell_volume    272.425
_exptl_crystal_colour 'colorless'
_exptl_crystal_density_diffrn 1.709
_exptl_crystal_description 'block'
_diffrn_ambient_temperature 293
_diffrn_ambient_pressure 6090000.0
_diffrn_radiation_probe x-ray
_diffrn_source synchrotron
#These two values have been output from a single CSD field.
_refine_ls_R_factor_gt 0.0491
_refine_ls_wR_factor_gt 0.0491
_symmetry_cell_setting cubic
_symmetry_space_group_name_H-M 'I -4 3 m'
_symmetry_Int_Tables_number 217
loop_
_symmetry_equiv_pos_site_id
_symmetry_equiv_pos_as_xyz
1 x,y,z
2 -x,-y,z
3 -x,y,-z
4 x,-y,-z
5 z,x,y
6 z,-x,-y
7 -z,-x,y
8 -z,x,-y
9 y,z,x
10 -y,z,-x
11 y,-z,-x
12 -y,-z,x
13 y,x,z
14 -y,-x,z
15 y,-x,-z
16 -y,x,-z
17 x,z,y
18 -x,z,-y
19 -x,-z,y
20 x,-z,-y
21 z,y,x
22 z,-y,-x
23 -z,y,-x
24 -z,-y,x
25 1/2+x,1/2+y,1/2+z
26 1/2-x,1/2-y,1/2+z
27 1/2-x,1/2+y,1/2-z
28 1/2+x,1/2-y,1/2-z
29 1/2+z,1/2+x,1/2+y
30 1/2+z,1/2-x,1/2-y
31 1/2-z,1/2-x,1/2+y
32 1/2-z,1/2+x,1/2-y
33 1/2+y,1/2+z,1/2+x
34 1/2-y,1/2+z,1/2-x
35 1/2+y,1/2-z,1/2-x
36 1/2-y,1/2-z,1/2+x
37 1/2+y,1/2+x,1/2+z
38 1/2-y,1/2-x,1/2+z
39 1/2+y,1/2-x,1/2-z
40 1/2-y,1/2+x,1/2-z
41 1/2+x,1/2+z,1/2+y
42 1/2-x,1/2+z,1/2-y
43 1/2-x,1/2-z,1/2+y
44 1/2+x,1/2-z,1/2-y
45 1/2+z,1/2+y,1/2+x
46 1/2+z,1/2-y,1/2-x
47 1/2-z,1/2+y,1/2-x
48 1/2-z,1/2-y,1/2+x
_cell_length_a 6.4826(2)
_cell_length_b 6.4826(2)
_cell_length_c 6.4826(2)
_cell_angle_alpha 90
_cell_angle_beta 90
_cell_angle_gamma 90
_cell_formula_units_Z 2
loop_
_atom_type_symbol
_atom_type_radius_bond
C 0.68
H 0.23
N 0.68
loop_
_atom_site_label
_atom_site_type_symbol
_atom_site_fract_x
_atom_site_fract_y
_atom_site_fract_z
N1 N -0.1328(2) -0.1328(2) -0.1328(2)
C1 C -0.2581(4) 0.00000 0.00000
H1 H -0.34621 0.08550 -0.08550
N1C N -0.1328(2) 0.1328(2) 0.1328(2)
H1C H -0.34621 -0.08550 0.08550
C1D C 0.0000(4) -0.25810 0.00000
H1D H -0.08550 -0.34621 0.08550
C1E C 0.0000(4) 0.25810 0.00000
H1E H -0.08550 0.34621 -0.08550
N1A N 0.1328(2) 0.1328(2) -0.1328(2)
H1F H 0.08550 0.34621 0.08550
N1B N 0.1328(2) -0.1328(2) 0.1328(2)
H1G H 0.08550 -0.34621 -0.08550
C1H C 0.0000(4) 0.00000 -0.25810
H1H H 0.08550 -0.08550 -0.34621
C1I C 0.0000(4) 0.00000 0.25810
H1I H -0.08550 -0.08550 0.34621
H1J H 0.08550 0.08550 0.34621
H1K H -0.08550 0.08550 -0.34621
C1A C 0.2581(4) 0.00000 0.00000
H1A H 0.34621 -0.08550 -0.08550
H1B H 0.34621 0.08550 0.08550
#END

data_CSD_CIF_QAMCAM22
_audit_creation_date 2020-12-18
_audit_creation_method CSD-ConQuest-V1
_database_code_CSD QAMCAM22
_database_code_depnum_ccdc_archive 'CCDC 1982579'
_chemical_formula_sum 'C6 H12 N4'
_chemical_formula_moiety
;
C6 H12 N4
;
_journal_coden_Cambridge 1220
_journal_volume 27
_journal_year 2020
_journal_page_first 1094
_journal_name_full 'Chem.-Eur.J. '
loop_
_publ_author_name
"P.A.Gunka"
"A.Olejniczak"
"S.Fanetti"
"R.Bini"
"I.E.Collings"
"V.Svitlyk"
"K.F.Dziubek"
_chemical_name_systematic
;
1,3,5,7-tetraazatricyclo[3.3.1.1^3,7^]decane
;
_chemical_name_common
;
hexamethylenetetramine; urotropine
;
_cell_volume    268.161
_exptl_crystal_colour 'colorless'
_exptl_crystal_density_diffrn 1.736
_exptl_crystal_description 'block'
_diffrn_ambient_temperature 293
_diffrn_ambient_pressure 6950000.0
_diffrn_radiation_probe x-ray
_diffrn_source synchrotron
#These two values have been output from a single CSD field.
_refine_ls_R_factor_gt 0.0428
_refine_ls_wR_factor_gt 0.0428
_symmetry_cell_setting cubic
_symmetry_space_group_name_H-M 'I -4 3 m'
_symmetry_Int_Tables_number 217
loop_
_symmetry_equiv_pos_site_id
_symmetry_equiv_pos_as_xyz
1 x,y,z
2 -x,-y,z
3 -x,y,-z
4 x,-y,-z
5 z,x,y
6 z,-x,-y
7 -z,-x,y
8 -z,x,-y
9 y,z,x
10 -y,z,-x
11 y,-z,-x
12 -y,-z,x
13 y,x,z
14 -y,-x,z
15 y,-x,-z
16 -y,x,-z
17 x,z,y
18 -x,z,-y
19 -x,-z,y
20 x,-z,-y
21 z,y,x
22 z,-y,-x
23 -z,y,-x
24 -z,-y,x
25 1/2+x,1/2+y,1/2+z
26 1/2-x,1/2-y,1/2+z
27 1/2-x,1/2+y,1/2-z
28 1/2+x,1/2-y,1/2-z
29 1/2+z,1/2+x,1/2+y
30 1/2+z,1/2-x,1/2-y
31 1/2-z,1/2-x,1/2+y
32 1/2-z,1/2+x,1/2-y
33 1/2+y,1/2+z,1/2+x
34 1/2-y,1/2+z,1/2-x
35 1/2+y,1/2-z,1/2-x
36 1/2-y,1/2-z,1/2+x
37 1/2+y,1/2+x,1/2+z
38 1/2-y,1/2-x,1/2+z
39 1/2+y,1/2-x,1/2-z
40 1/2-y,1/2+x,1/2-z
41 1/2+x,1/2+z,1/2+y
42 1/2-x,1/2+z,1/2-y
43 1/2-x,1/2-z,1/2+y
44 1/2+x,1/2-z,1/2-y
45 1/2+z,1/2+y,1/2+x
46 1/2+z,1/2-y,1/2-x
47 1/2-z,1/2+y,1/2-x
48 1/2-z,1/2-y,1/2+x
_cell_length_a 6.4486(1)
_cell_length_b 6.4486(1)
_cell_length_c 6.4486(1)
_cell_angle_alpha 90
_cell_angle_beta 90
_cell_angle_gamma 90
_cell_formula_units_Z 2
loop_
_atom_type_symbol
_atom_type_radius_bond
C 0.68
H 0.23
N 0.68
loop_
_atom_site_label
_atom_site_type_symbol
_atom_site_fract_x
_atom_site_fract_y
_atom_site_fract_z
N1 N 0.1333(2) 0.1333(2) 0.1333(2)
C1 C 0.2591(4) 0.00000 0.00000
H1 H 0.34772 -0.08596 0.08596
N1C N 0.1333(2) -0.1333(2) -0.1333(2)
H1C H 0.34772 0.08596 -0.08596
C1D C 0.0000(4) 0.25910 0.00000
H1D H 0.08596 0.34772 -0.08596
C1E C 0.0000(4) -0.25910 0.00000
H1E H 0.08596 -0.34772 0.08596
N1A N -0.1333(2) -0.1333(2) 0.1333(2)
H1F H -0.08596 -0.34772 -0.08596
N1B N -0.1333(2) 0.1333(2) -0.1333(2)
H1G H -0.08596 0.34772 0.08596
C1H C 0.0000(4) 0.00000 0.25910
H1H H -0.08596 0.08596 0.34772
C1I C 0.0000(4) 0.00000 -0.25910
H1I H 0.08596 0.08596 -0.34772
H1J H -0.08596 -0.08596 -0.34772
H1K H 0.08596 -0.08596 0.34772
C1A C -0.2591(4) 0.00000 0.00000
H1A H -0.34772 0.08596 0.08596
H1B H -0.34772 -0.08596 -0.08596
#END

data_CSD_CIF_QAMCAM23
_audit_creation_date 2020-12-18
_audit_creation_method CSD-ConQuest-V1
_database_code_CSD QAMCAM23
_database_code_depnum_ccdc_archive 'CCDC 1982580'
_chemical_formula_sum 'C6 H12 N4'
_chemical_formula_moiety
;
C6 H12 N4
;
_journal_coden_Cambridge 1220
_journal_volume 27
_journal_year 2020
_journal_page_first 1094
_journal_name_full 'Chem.-Eur.J. '
loop_
_publ_author_name
"P.A.Gunka"
"A.Olejniczak"
"S.Fanetti"
"R.Bini"
"I.E.Collings"
"V.Svitlyk"
"K.F.Dziubek"
_chemical_name_systematic
;
1,3,5,7-tetraazatricyclo[3.3.1.1^3,7^]decane
;
_chemical_name_common
;
hexamethylenetetramine; urotropine
;
_cell_volume    263.609
_exptl_crystal_colour 'colorless'
_exptl_crystal_density_diffrn 1.766
_exptl_crystal_description 'block'
_diffrn_ambient_temperature 293
_diffrn_ambient_pressure 8010000.0
_diffrn_radiation_probe x-ray
_diffrn_source synchrotron
#These two values have been output from a single CSD field.
_refine_ls_R_factor_gt 0.0452
_refine_ls_wR_factor_gt 0.0452
_symmetry_cell_setting cubic
_symmetry_space_group_name_H-M 'I -4 3 m'
_symmetry_Int_Tables_number 217
loop_
_symmetry_equiv_pos_site_id
_symmetry_equiv_pos_as_xyz
1 x,y,z
2 -x,-y,z
3 -x,y,-z
4 x,-y,-z
5 z,x,y
6 z,-x,-y
7 -z,-x,y
8 -z,x,-y
9 y,z,x
10 -y,z,-x
11 y,-z,-x
12 -y,-z,x
13 y,x,z
14 -y,-x,z
15 y,-x,-z
16 -y,x,-z
17 x,z,y
18 -x,z,-y
19 -x,-z,y
20 x,-z,-y
21 z,y,x
22 z,-y,-x
23 -z,y,-x
24 -z,-y,x
25 1/2+x,1/2+y,1/2+z
26 1/2-x,1/2-y,1/2+z
27 1/2-x,1/2+y,1/2-z
28 1/2+x,1/2-y,1/2-z
29 1/2+z,1/2+x,1/2+y
30 1/2+z,1/2-x,1/2-y
31 1/2-z,1/2-x,1/2+y
32 1/2-z,1/2+x,1/2-y
33 1/2+y,1/2+z,1/2+x
34 1/2-y,1/2+z,1/2-x
35 1/2+y,1/2-z,1/2-x
36 1/2-y,1/2-z,1/2+x
37 1/2+y,1/2+x,1/2+z
38 1/2-y,1/2-x,1/2+z
39 1/2+y,1/2-x,1/2-z
40 1/2-y,1/2+x,1/2-z
41 1/2+x,1/2+z,1/2+y
42 1/2-x,1/2+z,1/2-y
43 1/2-x,1/2-z,1/2+y
44 1/2+x,1/2-z,1/2-y
45 1/2+z,1/2+y,1/2+x
46 1/2+z,1/2-y,1/2-x
47 1/2-z,1/2+y,1/2-x
48 1/2-z,1/2-y,1/2+x
_cell_length_a 6.4119(2)
_cell_length_b 6.4119(2)
_cell_length_c 6.4119(2)
_cell_angle_alpha 90
_cell_angle_beta 90
_cell_angle_gamma 90
_cell_formula_units_Z 2
loop_
_atom_type_symbol
_atom_type_radius_bond
C 0.68
H 0.23
N 0.68
loop_
_atom_site_label
_atom_site_type_symbol
_atom_site_fract_x
_atom_site_fract_y
_atom_site_fract_z
N1 N 0.1341(3) 0.1341(3) 0.1341(3)
C1 C 0.2607(4) 0.00000 0.00000
H1 H 0.34975 -0.08645 0.08645
N1C N 0.1341(3) -0.1341(3) -0.1341(3)
H1C H 0.34975 0.08645 -0.08645
C1D C 0.0000(4) 0.26070 0.00000
H1D H 0.08645 0.34975 -0.08645
C1E C 0.0000(4) -0.26070 0.00000
H1E H 0.08645 -0.34975 0.08645
N1A N -0.1341(3) -0.1341(3) 0.1341(3)
H1F H -0.08645 -0.34975 -0.08645
N1B N -0.1341(3) 0.1341(3) -0.1341(3)
H1G H -0.08645 0.34975 0.08645
C1H C 0.0000(4) 0.00000 0.26070
H1H H -0.08645 0.08645 0.34975
C1I C 0.0000(4) 0.00000 -0.26070
H1I H 0.08645 0.08645 -0.34975
H1J H -0.08645 -0.08645 -0.34975
H1K H 0.08645 -0.08645 0.34975
C1A C -0.2607(4) 0.00000 0.00000
H1A H -0.34975 0.08645 0.08645
H1B H -0.34975 -0.08645 -0.08645
#END

data_CSD_CIF_QAMCAM24
_audit_creation_date 2020-12-18
_audit_creation_method CSD-ConQuest-V1
_database_code_CSD QAMCAM24
_database_code_depnum_ccdc_archive 'CCDC 1982581'
_chemical_formula_sum 'C6 H12 N4'
_chemical_formula_moiety
;
C6 H12 N4
;
_journal_coden_Cambridge 1220
_journal_volume 27
_journal_year 2020
_journal_page_first 1094
_journal_name_full 'Chem.-Eur.J. '
loop_
_publ_author_name
"P.A.Gunka"
"A.Olejniczak"
"S.Fanetti"
"R.Bini"
"I.E.Collings"
"V.Svitlyk"
"K.F.Dziubek"
_chemical_name_systematic
;
1,3,5,7-tetraazatricyclo[3.3.1.1^3,7^]decane
;
_chemical_name_common
;
hexamethylenetetramine; urotropine
;
_cell_volume    259.737
_exptl_crystal_colour 'colorless'
_exptl_crystal_density_diffrn 1.793
_exptl_crystal_description 'block'
_diffrn_ambient_temperature 293
_diffrn_ambient_pressure 9210000.0
_diffrn_radiation_probe x-ray
_diffrn_source synchrotron
#These two values have been output from a single CSD field.
_refine_ls_R_factor_gt 0.0397
_refine_ls_wR_factor_gt 0.0397
_symmetry_cell_setting cubic
_symmetry_space_group_name_H-M 'I -4 3 m'
_symmetry_Int_Tables_number 217
loop_
_symmetry_equiv_pos_site_id
_symmetry_equiv_pos_as_xyz
1 x,y,z
2 -x,-y,z
3 -x,y,-z
4 x,-y,-z
5 z,x,y
6 z,-x,-y
7 -z,-x,y
8 -z,x,-y
9 y,z,x
10 -y,z,-x
11 y,-z,-x
12 -y,-z,x
13 y,x,z
14 -y,-x,z
15 y,-x,-z
16 -y,x,-z
17 x,z,y
18 -x,z,-y
19 -x,-z,y
20 x,-z,-y
21 z,y,x
22 z,-y,-x
23 -z,y,-x
24 -z,-y,x
25 1/2+x,1/2+y,1/2+z
26 1/2-x,1/2-y,1/2+z
27 1/2-x,1/2+y,1/2-z
28 1/2+x,1/2-y,1/2-z
29 1/2+z,1/2+x,1/2+y
30 1/2+z,1/2-x,1/2-y
31 1/2-z,1/2-x,1/2+y
32 1/2-z,1/2+x,1/2-y
33 1/2+y,1/2+z,1/2+x
34 1/2-y,1/2+z,1/2-x
35 1/2+y,1/2-z,1/2-x
36 1/2-y,1/2-z,1/2+x
37 1/2+y,1/2+x,1/2+z
38 1/2-y,1/2-x,1/2+z
39 1/2+y,1/2-x,1/2-z
40 1/2-y,1/2+x,1/2-z
41 1/2+x,1/2+z,1/2+y
42 1/2-x,1/2+z,1/2-y
43 1/2-x,1/2-z,1/2+y
44 1/2+x,1/2-z,1/2-y
45 1/2+z,1/2+y,1/2+x
46 1/2+z,1/2-y,1/2-x
47 1/2-z,1/2+y,1/2-x
48 1/2-z,1/2-y,1/2+x
_cell_length_a 6.38035(12)
_cell_length_b 6.38035(12)
_cell_length_c 6.38035(12)
_cell_angle_alpha 90
_cell_angle_beta 90
_cell_angle_gamma 90
_cell_formula_units_Z 2
loop_
_atom_type_symbol
_atom_type_radius_bond
C 0.68
H 0.23
N 0.68
loop_
_atom_site_label
_atom_site_type_symbol
_atom_site_fract_x
_atom_site_fract_y
_atom_site_fract_z
N1 N 0.1347(2) 0.1347(2) 0.1347(2)
C1 C 0.2617(4) 0.00000 0.00000
H1 H 0.35123 0.08687 -0.08687
N1C N 0.1347(2) -0.1347(2) -0.1347(2)
H1C H 0.35123 -0.08687 0.08687
C1D C 0.0000(4) 0.26170 0.00000
H1D H -0.08687 0.35123 0.08687
C1E C 0.0000(4) -0.26170 0.00000
H1E H -0.08687 -0.35123 -0.08687
N1A N -0.1347(2) -0.1347(2) 0.1347(2)
H1F H 0.08687 -0.35123 0.08687
N1B N -0.1347(2) 0.1347(2) -0.1347(2)
H1G H 0.08687 0.35123 -0.08687
C1H C 0.0000(4) 0.00000 0.26170
H1H H 0.08687 -0.08687 0.35123
C1I C 0.0000(4) 0.00000 -0.26170
H1I H -0.08687 -0.08687 -0.35123
H1J H 0.08687 0.08687 -0.35123
H1K H -0.08687 0.08687 0.35123
C1A C -0.2617(4) 0.00000 0.00000
H1A H -0.35123 -0.08687 -0.08687
H1B H -0.35123 0.08687 0.08687
#END

data_CSD_CIF_QAMCAM25
_audit_creation_date 2020-12-18
_audit_creation_method CSD-ConQuest-V1
_database_code_CSD QAMCAM25
_database_code_depnum_ccdc_archive 'CCDC 1982582'
_chemical_formula_sum 'C6 H12 N4'
_chemical_formula_moiety
;
C6 H12 N4
;
_journal_coden_Cambridge 1220
_journal_volume 27
_journal_year 2020
_journal_page_first 1094
_journal_name_full 'Chem.-Eur.J. '
loop_
_publ_author_name
"P.A.Gunka"
"A.Olejniczak"
"S.Fanetti"
"R.Bini"
"I.E.Collings"
"V.Svitlyk"
"K.F.Dziubek"
_chemical_name_systematic
;
1,3,5,7-tetraazatricyclo[3.3.1.1^3,7^]decane
;
_chemical_name_common
;
hexamethylenetetramine; urotropine
;
_cell_volume    256.447
_exptl_crystal_colour 'colorless'
_exptl_crystal_density_diffrn 1.816
_exptl_crystal_description 'block'
_diffrn_ambient_temperature 293
_diffrn_ambient_pressure 10000000.0
_diffrn_radiation_probe x-ray
_diffrn_source synchrotron
#These two values have been output from a single CSD field.
_refine_ls_R_factor_gt 0.0405
_refine_ls_wR_factor_gt 0.0405
_symmetry_cell_setting cubic
_symmetry_space_group_name_H-M 'I -4 3 m'
_symmetry_Int_Tables_number 217
loop_
_symmetry_equiv_pos_site_id
_symmetry_equiv_pos_as_xyz
1 x,y,z
2 -x,-y,z
3 -x,y,-z
4 x,-y,-z
5 z,x,y
6 z,-x,-y
7 -z,-x,y
8 -z,x,-y
9 y,z,x
10 -y,z,-x
11 y,-z,-x
12 -y,-z,x
13 y,x,z
14 -y,-x,z
15 y,-x,-z
16 -y,x,-z
17 x,z,y
18 -x,z,-y
19 -x,-z,y
20 x,-z,-y
21 z,y,x
22 z,-y,-x
23 -z,y,-x
24 -z,-y,x
25 1/2+x,1/2+y,1/2+z
26 1/2-x,1/2-y,1/2+z
27 1/2-x,1/2+y,1/2-z
28 1/2+x,1/2-y,1/2-z
29 1/2+z,1/2+x,1/2+y
30 1/2+z,1/2-x,1/2-y
31 1/2-z,1/2-x,1/2+y
32 1/2-z,1/2+x,1/2-y
33 1/2+y,1/2+z,1/2+x
34 1/2-y,1/2+z,1/2-x
35 1/2+y,1/2-z,1/2-x
36 1/2-y,1/2-z,1/2+x
37 1/2+y,1/2+x,1/2+z
38 1/2-y,1/2-x,1/2+z
39 1/2+y,1/2-x,1/2-z
40 1/2-y,1/2+x,1/2-z
41 1/2+x,1/2+z,1/2+y
42 1/2-x,1/2+z,1/2-y
43 1/2-x,1/2-z,1/2+y
44 1/2+x,1/2-z,1/2-y
45 1/2+z,1/2+y,1/2+x
46 1/2+z,1/2-y,1/2-x
47 1/2-z,1/2+y,1/2-x
48 1/2-z,1/2-y,1/2+x
_cell_length_a 6.3533(1)
_cell_length_b 6.3533(1)
_cell_length_c 6.3533(1)
_cell_angle_alpha 90
_cell_angle_beta 90
_cell_angle_gamma 90
_cell_formula_units_Z 2
loop_
_atom_type_symbol
_atom_type_radius_bond
C 0.68
H 0.23
N 0.68
loop_
_atom_site_label
_atom_site_type_symbol
_atom_site_fract_x
_atom_site_fract_y
_atom_site_fract_z
N1 N 0.1352(2) 0.1352(2) 0.1352(2)
C1 C 0.2627(4) 0.00000 0.00000
H1 H 0.35264 -0.08724 0.08724
N1C N 0.1352(2) -0.1352(2) -0.1352(2)
H1C H 0.35264 0.08724 -0.08724
C1D C 0.0000(4) 0.26270 0.00000
H1D H 0.08724 0.35264 -0.08724
C1E C 0.0000(4) -0.26270 0.00000
H1E H 0.08724 -0.35264 0.08724
N1A N -0.1352(2) -0.1352(2) 0.1352(2)
H1F H -0.08724 -0.35264 -0.08724
N1B N -0.1352(2) 0.1352(2) -0.1352(2)
H1G H -0.08724 0.35264 0.08724
C1H C 0.0000(4) 0.00000 0.26270
H1H H -0.08724 0.08724 0.35264
C1I C 0.0000(4) 0.00000 -0.26270
H1I H 0.08724 0.08724 -0.35264
H1J H -0.08724 -0.08724 -0.35264
H1K H 0.08724 -0.08724 0.35264
C1A C -0.2627(4) 0.00000 0.00000
H1A H -0.35264 0.08724 0.08724
H1B H -0.35264 -0.08724 -0.08724
#END

data_CSD_CIF_QAMCAM26
_audit_creation_date 2020-12-18
_audit_creation_method CSD-ConQuest-V1
_database_code_CSD QAMCAM26
_database_code_depnum_ccdc_archive 'CCDC 1982583'
_chemical_formula_sum 'C6 H12 N4'
_chemical_formula_moiety
;
C6 H12 N4
;
_journal_coden_Cambridge 1220
_journal_volume 27
_journal_year 2020
_journal_page_first 1094
_journal_name_full 'Chem.-Eur.J. '
loop_
_publ_author_name
"P.A.Gunka"
"A.Olejniczak"
"S.Fanetti"
"R.Bini"
"I.E.Collings"
"V.Svitlyk"
"K.F.Dziubek"
_chemical_name_systematic
;
1,3,5,7-tetraazatricyclo[3.3.1.1^3,7^]decane
;
_chemical_name_common
;
hexamethylenetetramine; urotropine
;
_cell_volume    254.792
_exptl_crystal_colour 'colorless'
_exptl_crystal_density_diffrn 1.827
_exptl_crystal_description 'block'
_diffrn_ambient_temperature 293
_diffrn_ambient_pressure 10510000.0
_diffrn_radiation_probe x-ray
_diffrn_source synchrotron
#These two values have been output from a single CSD field.
_refine_ls_R_factor_gt 0.0498
_refine_ls_wR_factor_gt 0.0498
_symmetry_cell_setting cubic
_symmetry_space_group_name_H-M 'I -4 3 m'
_symmetry_Int_Tables_number 217
loop_
_symmetry_equiv_pos_site_id
_symmetry_equiv_pos_as_xyz
1 x,y,z
2 -x,-y,z
3 -x,y,-z
4 x,-y,-z
5 z,x,y
6 z,-x,-y
7 -z,-x,y
8 -z,x,-y
9 y,z,x
10 -y,z,-x
11 y,-z,-x
12 -y,-z,x
13 y,x,z
14 -y,-x,z
15 y,-x,-z
16 -y,x,-z
17 x,z,y
18 -x,z,-y
19 -x,-z,y
20 x,-z,-y
21 z,y,x
22 z,-y,-x
23 -z,y,-x
24 -z,-y,x
25 1/2+x,1/2+y,1/2+z
26 1/2-x,1/2-y,1/2+z
27 1/2-x,1/2+y,1/2-z
28 1/2+x,1/2-y,1/2-z
29 1/2+z,1/2+x,1/2+y
30 1/2+z,1/2-x,1/2-y
31 1/2-z,1/2-x,1/2+y
32 1/2-z,1/2+x,1/2-y
33 1/2+y,1/2+z,1/2+x
34 1/2-y,1/2+z,1/2-x
35 1/2+y,1/2-z,1/2-x
36 1/2-y,1/2-z,1/2+x
37 1/2+y,1/2+x,1/2+z
38 1/2-y,1/2-x,1/2+z
39 1/2+y,1/2-x,1/2-z
40 1/2-y,1/2+x,1/2-z
41 1/2+x,1/2+z,1/2+y
42 1/2-x,1/2+z,1/2-y
43 1/2-x,1/2-z,1/2+y
44 1/2+x,1/2-z,1/2-y
45 1/2+z,1/2+y,1/2+x
46 1/2+z,1/2-y,1/2-x
47 1/2-z,1/2+y,1/2-x
48 1/2-z,1/2-y,1/2+x
_cell_length_a 6.3396(9)
_cell_length_b 6.3396(9)
_cell_length_c 6.3396(9)
_cell_angle_alpha 90
_cell_angle_beta 90
_cell_angle_gamma 90
_cell_formula_units_Z 2
loop_
_atom_type_symbol
_atom_type_radius_bond
C 0.68
H 0.23
N 0.68
loop_
_atom_site_label
_atom_site_type_symbol
_atom_site_fract_x
_atom_site_fract_y
_atom_site_fract_z
N1 N -0.1352(3) -0.1352(3) -0.1352(3)
C1 C -0.2628(4) 0.00000 0.00000
H1 H -0.35295 -0.08744 0.08744
N1C N -0.1352(3) 0.1352(3) 0.1352(3)
H1C H -0.35295 0.08744 -0.08744
C1D C 0.0000(4) -0.26280 0.00000
H1D H 0.08744 -0.35295 -0.08744
C1E C 0.0000(4) 0.26280 0.00000
H1E H 0.08744 0.35295 0.08744
N1A N 0.1352(3) 0.1352(3) -0.1352(3)
H1F H -0.08744 0.35295 -0.08744
N1B N 0.1352(3) -0.1352(3) 0.1352(3)
H1G H -0.08744 -0.35295 0.08744
C1H C 0.0000(4) 0.00000 -0.26280
H1H H -0.08744 0.08744 -0.35295
C1I C 0.0000(4) 0.00000 0.26280
H1I H 0.08744 0.08744 0.35295
H1J H -0.08744 -0.08744 0.35295
H1K H 0.08744 -0.08744 -0.35295
C1A C 0.2628(4) 0.00000 0.00000
H1A H 0.35295 0.08744 0.08744
H1B H 0.35295 -0.08744 -0.08744
#END

data_CSD_CIF_QAMCAM27
_audit_creation_date 2020-12-18
_audit_creation_method CSD-ConQuest-V1
_database_code_CSD QAMCAM27
_database_code_depnum_ccdc_archive 'CCDC 1982584'
_chemical_formula_sum 'C6 H12 N4'
_chemical_formula_moiety
;
C6 H12 N4
;
_journal_coden_Cambridge 1220
_journal_volume 27
_journal_year 2020
_journal_page_first 1094
_journal_name_full 'Chem.-Eur.J. '
loop_
_publ_author_name
"P.A.Gunka"
"A.Olejniczak"
"S.Fanetti"
"R.Bini"
"I.E.Collings"
"V.Svitlyk"
"K.F.Dziubek"
_chemical_name_systematic
;
1,3,5,7-tetraazatricyclo[3.3.1.1^3,7^]decane
;
_chemical_name_common
;
hexamethylenetetramine; urotropine
;
_cell_volume    253.804
_exptl_crystal_colour 'colorless'
_exptl_crystal_density_diffrn 1.834
_exptl_crystal_description 'block'
_diffrn_ambient_temperature 293
_diffrn_ambient_pressure 11100000.0
_diffrn_radiation_probe x-ray
_diffrn_source synchrotron
#These two values have been output from a single CSD field.
_refine_ls_R_factor_gt 0.0398
_refine_ls_wR_factor_gt 0.0398
_symmetry_cell_setting cubic
_symmetry_space_group_name_H-M 'I -4 3 m'
_symmetry_Int_Tables_number 217
loop_
_symmetry_equiv_pos_site_id
_symmetry_equiv_pos_as_xyz
1 x,y,z
2 -x,-y,z
3 -x,y,-z
4 x,-y,-z
5 z,x,y
6 z,-x,-y
7 -z,-x,y
8 -z,x,-y
9 y,z,x
10 -y,z,-x
11 y,-z,-x
12 -y,-z,x
13 y,x,z
14 -y,-x,z
15 y,-x,-z
16 -y,x,-z
17 x,z,y
18 -x,z,-y
19 -x,-z,y
20 x,-z,-y
21 z,y,x
22 z,-y,-x
23 -z,y,-x
24 -z,-y,x
25 1/2+x,1/2+y,1/2+z
26 1/2-x,1/2-y,1/2+z
27 1/2-x,1/2+y,1/2-z
28 1/2+x,1/2-y,1/2-z
29 1/2+z,1/2+x,1/2+y
30 1/2+z,1/2-x,1/2-y
31 1/2-z,1/2-x,1/2+y
32 1/2-z,1/2+x,1/2-y
33 1/2+y,1/2+z,1/2+x
34 1/2-y,1/2+z,1/2-x
35 1/2+y,1/2-z,1/2-x
36 1/2-y,1/2-z,1/2+x
37 1/2+y,1/2+x,1/2+z
38 1/2-y,1/2-x,1/2+z
39 1/2+y,1/2-x,1/2-z
40 1/2-y,1/2+x,1/2-z
41 1/2+x,1/2+z,1/2+y
42 1/2-x,1/2+z,1/2-y
43 1/2-x,1/2-z,1/2+y
44 1/2+x,1/2-z,1/2-y
45 1/2+z,1/2+y,1/2+x
46 1/2+z,1/2-y,1/2-x
47 1/2-z,1/2+y,1/2-x
48 1/2-z,1/2-y,1/2+x
_cell_length_a 6.3314(4)
_cell_length_b 6.3314(4)
_cell_length_c 6.3314(4)
_cell_angle_alpha 90
_cell_angle_beta 90
_cell_angle_gamma 90
_cell_formula_units_Z 2
loop_
_atom_type_symbol
_atom_type_radius_bond
C 0.68
H 0.23
N 0.68
loop_
_atom_site_label
_atom_site_type_symbol
_atom_site_fract_x
_atom_site_fract_y
_atom_site_fract_z
N1 N -0.1353(3) -0.1353(3) -0.1353(3)
C1 C -0.2635(5) 0.00000 0.00000
H1 H -0.35368 -0.08756 0.08756
N1C N -0.1353(3) 0.1353(3) 0.1353(3)
H1C H -0.35368 0.08756 -0.08756
C1D C 0.0000(5) -0.26350 0.00000
H1D H 0.08756 -0.35368 -0.08756
C1E C 0.0000(5) 0.26350 0.00000
H1E H 0.08756 0.35368 0.08756
N1A N 0.1353(3) 0.1353(3) -0.1353(3)
H1F H -0.08756 0.35368 -0.08756
N1B N 0.1353(3) -0.1353(3) 0.1353(3)
H1G H -0.08756 -0.35368 0.08756
C1H C 0.0000(5) 0.00000 -0.26350
H1H H -0.08756 0.08756 -0.35368
C1I C 0.0000(5) 0.00000 0.26350
H1I H 0.08756 0.08756 0.35368
H1J H -0.08756 -0.08756 0.35368
H1K H 0.08756 -0.08756 -0.35368
C1A C 0.2635(5) 0.00000 0.00000
H1A H 0.35368 0.08756 0.08756
H1B H 0.35368 -0.08756 -0.08756
#END

data_CSD_CIF_QAMCAM28
_audit_creation_date 2020-12-18
_audit_creation_method CSD-ConQuest-V1
_database_code_CSD QAMCAM28
_database_code_depnum_ccdc_archive 'CCDC 1982585'
_chemical_formula_sum 'C6 H12 N4'
_chemical_formula_moiety
;
C6 H12 N4
;
_journal_coden_Cambridge 1220
_journal_volume 27
_journal_year 2020
_journal_page_first 1094
_journal_name_full 'Chem.-Eur.J. '
loop_
_publ_author_name
"P.A.Gunka"
"A.Olejniczak"
"S.Fanetti"
"R.Bini"
"I.E.Collings"
"V.Svitlyk"
"K.F.Dziubek"
_chemical_name_systematic
;
1,3,5,7-tetraazatricyclo[3.3.1.1^3,7^]decane
;
_chemical_name_common
;
hexamethylenetetramine; urotropine
;
_cell_volume    253.384
_exptl_crystal_colour 'colorless'
_exptl_crystal_density_diffrn 1.838
_exptl_crystal_description 'block'
_diffrn_ambient_temperature 293
_diffrn_ambient_pressure 11220000.0
_diffrn_radiation_probe x-ray
_diffrn_source synchrotron
#These two values have been output from a single CSD field.
_refine_ls_R_factor_gt 0.0433
_refine_ls_wR_factor_gt 0.0433
_symmetry_cell_setting cubic
_symmetry_space_group_name_H-M 'I -4 3 m'
_symmetry_Int_Tables_number 217
loop_
_symmetry_equiv_pos_site_id
_symmetry_equiv_pos_as_xyz
1 x,y,z
2 -x,-y,z
3 -x,y,-z
4 x,-y,-z
5 z,x,y
6 z,-x,-y
7 -z,-x,y
8 -z,x,-y
9 y,z,x
10 -y,z,-x
11 y,-z,-x
12 -y,-z,x
13 y,x,z
14 -y,-x,z
15 y,-x,-z
16 -y,x,-z
17 x,z,y
18 -x,z,-y
19 -x,-z,y
20 x,-z,-y
21 z,y,x
22 z,-y,-x
23 -z,y,-x
24 -z,-y,x
25 1/2+x,1/2+y,1/2+z
26 1/2-x,1/2-y,1/2+z
27 1/2-x,1/2+y,1/2-z
28 1/2+x,1/2-y,1/2-z
29 1/2+z,1/2+x,1/2+y
30 1/2+z,1/2-x,1/2-y
31 1/2-z,1/2-x,1/2+y
32 1/2-z,1/2+x,1/2-y
33 1/2+y,1/2+z,1/2+x
34 1/2-y,1/2+z,1/2-x
35 1/2+y,1/2-z,1/2-x
36 1/2-y,1/2-z,1/2+x
37 1/2+y,1/2+x,1/2+z
38 1/2-y,1/2-x,1/2+z
39 1/2+y,1/2-x,1/2-z
40 1/2-y,1/2+x,1/2-z
41 1/2+x,1/2+z,1/2+y
42 1/2-x,1/2+z,1/2-y
43 1/2-x,1/2-z,1/2+y
44 1/2+x,1/2-z,1/2-y
45 1/2+z,1/2+y,1/2+x
46 1/2+z,1/2-y,1/2-x
47 1/2-z,1/2+y,1/2-x
48 1/2-z,1/2-y,1/2+x
_cell_length_a 6.3279(6)
_cell_length_b 6.3279(6)
_cell_length_c 6.3279(6)
_cell_angle_alpha 90
_cell_angle_beta 90
_cell_angle_gamma 90
_cell_formula_units_Z 2
loop_
_atom_type_symbol
_atom_type_radius_bond
C 0.68
H 0.23
N 0.68
loop_
_atom_site_label
_atom_site_type_symbol
_atom_site_fract_x
_atom_site_fract_y
_atom_site_fract_z
N1 N 0.1355(3) 0.1355(3) 0.1355(3)
C1 C 0.2634(4) 0.00000 0.00000
H1 H 0.35372 0.08760 -0.08760
N1C N 0.1355(3) -0.1355(3) -0.1355(3)
H1C H 0.35372 -0.08760 0.08760
C1D C 0.0000(4) 0.26340 0.00000
H1D H -0.08760 0.35372 0.08760
C1E C 0.0000(4) -0.26340 0.00000
H1E H -0.08760 -0.35372 -0.08760
N1A N -0.1355(3) -0.1355(3) 0.1355(3)
H1F H 0.08760 -0.35372 0.08760
N1B N -0.1355(3) 0.1355(3) -0.1355(3)
H1G H 0.08760 0.35372 -0.08760
C1H C 0.0000(4) 0.00000 0.26340
H1H H 0.08760 -0.08760 0.35372
C1I C 0.0000(4) 0.00000 -0.26340
H1I H -0.08760 -0.08760 -0.35372
H1J H 0.08760 0.08760 -0.35372
H1K H -0.08760 0.08760 0.35372
C1A C -0.2634(4) 0.00000 0.00000
H1A H -0.35372 -0.08760 -0.08760
H1B H -0.35372 0.08760 0.08760
#END

data_CSD_CIF_QAMCAM29
_audit_creation_date 2020-12-18
_audit_creation_method CSD-ConQuest-V1
_database_code_CSD QAMCAM29
_database_code_depnum_ccdc_archive 'CCDC 1982586'
_chemical_formula_sum 'C6 H12 N4'
_chemical_formula_moiety
;
C6 H12 N4
;
_journal_coden_Cambridge 1220
_journal_volume 27
_journal_year 2020
_journal_page_first 1094
_journal_name_full 'Chem.-Eur.J. '
loop_
_publ_author_name
"P.A.Gunka"
"A.Olejniczak"
"S.Fanetti"
"R.Bini"
"I.E.Collings"
"V.Svitlyk"
"K.F.Dziubek"
_chemical_name_systematic
;
1,3,5,7-tetraazatricyclo[3.3.1.1^3,7^]decane
;
_chemical_name_common
;
hexamethylenetetramine; urotropine
;
_cell_volume    252.005
_exptl_crystal_colour 'colorless'
_exptl_crystal_density_diffrn 1.848
_exptl_crystal_description 'block'
_diffrn_ambient_temperature 293
_diffrn_ambient_pressure 11450000.0
_diffrn_radiation_probe x-ray
_diffrn_source synchrotron
#These two values have been output from a single CSD field.
_refine_ls_R_factor_gt 0.0374
_refine_ls_wR_factor_gt 0.0374
_symmetry_cell_setting cubic
_symmetry_space_group_name_H-M 'I -4 3 m'
_symmetry_Int_Tables_number 217
loop_
_symmetry_equiv_pos_site_id
_symmetry_equiv_pos_as_xyz
1 x,y,z
2 -x,-y,z
3 -x,y,-z
4 x,-y,-z
5 z,x,y
6 z,-x,-y
7 -z,-x,y
8 -z,x,-y
9 y,z,x
10 -y,z,-x
11 y,-z,-x
12 -y,-z,x
13 y,x,z
14 -y,-x,z
15 y,-x,-z
16 -y,x,-z
17 x,z,y
18 -x,z,-y
19 -x,-z,y
20 x,-z,-y
21 z,y,x
22 z,-y,-x
23 -z,y,-x
24 -z,-y,x
25 1/2+x,1/2+y,1/2+z
26 1/2-x,1/2-y,1/2+z
27 1/2-x,1/2+y,1/2-z
28 1/2+x,1/2-y,1/2-z
29 1/2+z,1/2+x,1/2+y
30 1/2+z,1/2-x,1/2-y
31 1/2-z,1/2-x,1/2+y
32 1/2-z,1/2+x,1/2-y
33 1/2+y,1/2+z,1/2+x
34 1/2-y,1/2+z,1/2-x
35 1/2+y,1/2-z,1/2-x
36 1/2-y,1/2-z,1/2+x
37 1/2+y,1/2+x,1/2+z
38 1/2-y,1/2-x,1/2+z
39 1/2+y,1/2-x,1/2-z
40 1/2-y,1/2+x,1/2-z
41 1/2+x,1/2+z,1/2+y
42 1/2-x,1/2+z,1/2-y
43 1/2-x,1/2-z,1/2+y
44 1/2+x,1/2-z,1/2-y
45 1/2+z,1/2+y,1/2+x
46 1/2+z,1/2-y,1/2-x
47 1/2-z,1/2+y,1/2-x
48 1/2-z,1/2-y,1/2+x
_cell_length_a 6.3164(5)
_cell_length_b 6.3164(5)
_cell_length_c 6.3164(5)
_cell_angle_alpha 90
_cell_angle_beta 90
_cell_angle_gamma 90
_cell_formula_units_Z 2
loop_
_atom_type_symbol
_atom_type_radius_bond
C 0.68
H 0.23
N 0.68
loop_
_atom_site_label
_atom_site_type_symbol
_atom_site_fract_x
_atom_site_fract_y
_atom_site_fract_z
N1 N 0.1357(3) 0.1357(3) 0.1357(3)
C1 C 0.2640(4) 0.00000 0.00000
H1 H 0.35447 0.08776 -0.08776
N1C N 0.1357(3) -0.1357(3) -0.1357(3)
H1C H 0.35447 -0.08776 0.08776
C1D C 0.0000(4) 0.26400 0.00000
H1D H -0.08776 0.35447 0.08776
C1E C 0.0000(4) -0.26400 0.00000
H1E H -0.08776 -0.35447 -0.08776
N1A N -0.1357(3) -0.1357(3) 0.1357(3)
H1F H 0.08776 -0.35447 0.08776
N1B N -0.1357(3) 0.1357(3) -0.1357(3)
H1G H 0.08776 0.35447 -0.08776
C1H C 0.0000(4) 0.00000 0.26400
H1H H 0.08776 -0.08776 0.35447
C1I C 0.0000(4) 0.00000 -0.26400
H1I H -0.08776 -0.08776 -0.35447
H1J H 0.08776 0.08776 -0.35447
H1K H -0.08776 0.08776 0.35447
C1A C -0.2640(4) 0.00000 0.00000
H1A H -0.35447 -0.08776 -0.08776
H1B H -0.35447 0.08776 0.08776
#END

data_CSD_CIF_QAMCAM30
_audit_creation_date 2020-12-18
_audit_creation_method CSD-ConQuest-V1
_database_code_CSD QAMCAM30
_database_code_depnum_ccdc_archive 'CCDC 1982588'
_chemical_formula_sum 'C6 H12 N4'
_chemical_formula_moiety
;
C6 H12 N4
;
_journal_coden_Cambridge 1220
_journal_volume 27
_journal_year 2020
_journal_page_first 1094
_journal_name_full 'Chem.-Eur.J. '
loop_
_publ_author_name
"P.A.Gunka"
"A.Olejniczak"
"S.Fanetti"
"R.Bini"
"I.E.Collings"
"V.Svitlyk"
"K.F.Dziubek"
_chemical_name_systematic
;
1,3,5,7-tetraazatricyclo[3.3.1.1^3,7^]decane
;
_chemical_name_common
;
hexamethylenetetramine; urotropine
;
_cell_volume    250.869
_exptl_crystal_colour 'colorless'
_exptl_crystal_density_diffrn 1.856
_exptl_crystal_description 'block'
_diffrn_ambient_temperature 293
_diffrn_ambient_pressure 11900000.0
_diffrn_radiation_probe x-ray
_diffrn_source synchrotron
#These two values have been output from a single CSD field.
_refine_ls_R_factor_gt 0.0358
_refine_ls_wR_factor_gt 0.0358
_symmetry_cell_setting cubic
_symmetry_space_group_name_H-M 'I -4 3 m'
_symmetry_Int_Tables_number 217
loop_
_symmetry_equiv_pos_site_id
_symmetry_equiv_pos_as_xyz
1 x,y,z
2 -x,-y,z
3 -x,y,-z
4 x,-y,-z
5 z,x,y
6 z,-x,-y
7 -z,-x,y
8 -z,x,-y
9 y,z,x
10 -y,z,-x
11 y,-z,-x
12 -y,-z,x
13 y,x,z
14 -y,-x,z
15 y,-x,-z
16 -y,x,-z
17 x,z,y
18 -x,z,-y
19 -x,-z,y
20 x,-z,-y
21 z,y,x
22 z,-y,-x
23 -z,y,-x
24 -z,-y,x
25 1/2+x,1/2+y,1/2+z
26 1/2-x,1/2-y,1/2+z
27 1/2-x,1/2+y,1/2-z
28 1/2+x,1/2-y,1/2-z
29 1/2+z,1/2+x,1/2+y
30 1/2+z,1/2-x,1/2-y
31 1/2-z,1/2-x,1/2+y
32 1/2-z,1/2+x,1/2-y
33 1/2+y,1/2+z,1/2+x
34 1/2-y,1/2+z,1/2-x
35 1/2+y,1/2-z,1/2-x
36 1/2-y,1/2-z,1/2+x
37 1/2+y,1/2+x,1/2+z
38 1/2-y,1/2-x,1/2+z
39 1/2+y,1/2-x,1/2-z
40 1/2-y,1/2+x,1/2-z
41 1/2+x,1/2+z,1/2+y
42 1/2-x,1/2+z,1/2-y
43 1/2-x,1/2-z,1/2+y
44 1/2+x,1/2-z,1/2-y
45 1/2+z,1/2+y,1/2+x
46 1/2+z,1/2-y,1/2-x
47 1/2-z,1/2+y,1/2-x
48 1/2-z,1/2-y,1/2+x
_cell_length_a 6.3069(4)
_cell_length_b 6.3069(4)
_cell_length_c 6.3069(4)
_cell_angle_alpha 90
_cell_angle_beta 90
_cell_angle_gamma 90
_cell_formula_units_Z 2
loop_
_atom_type_symbol
_atom_type_radius_bond
C 0.68
H 0.23
N 0.68
loop_
_atom_site_label
_atom_site_type_symbol
_atom_site_fract_x
_atom_site_fract_y
_atom_site_fract_z
N1 N 0.1360(3) 0.1360(3) 0.1360(3)
C1 C 0.2642(4) 0.00000 0.00000
H1 H 0.35483 0.08789 -0.08789
N1C N 0.1360(3) -0.1360(3) -0.1360(3)
H1C H 0.35483 -0.08789 0.08789
C1D C 0.0000(4) 0.26420 0.00000
H1D H -0.08789 0.35483 0.08789
C1E C 0.0000(4) -0.26420 0.00000
H1E H -0.08789 -0.35483 -0.08789
N1A N -0.1360(3) -0.1360(3) 0.1360(3)
H1F H 0.08789 -0.35483 0.08789
N1B N -0.1360(3) 0.1360(3) -0.1360(3)
H1G H 0.08789 0.35483 -0.08789
C1H C 0.0000(4) 0.00000 0.26420
H1H H 0.08789 -0.08789 0.35483
C1I C 0.0000(4) 0.00000 -0.26420
H1I H -0.08789 -0.08789 -0.35483
H1J H 0.08789 0.08789 -0.35483
H1K H -0.08789 0.08789 0.35483
C1A C -0.2642(4) 0.00000 0.00000
H1A H -0.35483 -0.08789 -0.08789
H1B H -0.35483 0.08789 0.08789
#END

data_CSD_CIF_QAMCAM31
_audit_creation_date 2020-12-18
_audit_creation_method CSD-ConQuest-V1
_database_code_CSD QAMCAM31
_database_code_depnum_ccdc_archive 'CCDC 1982589'
_chemical_formula_sum 'C6 H12 N4'
_chemical_formula_moiety
;
C6 H12 N4
;
_journal_coden_Cambridge 1220
_journal_volume 27
_journal_year 2020
_journal_page_first 1094
_journal_name_full 'Chem.-Eur.J. '
loop_
_publ_author_name
"P.A.Gunka"
"A.Olejniczak"
"S.Fanetti"
"R.Bini"
"I.E.Collings"
"V.Svitlyk"
"K.F.Dziubek"
_chemical_name_systematic
;
1,3,5,7-tetraazatricyclo[3.3.1.1^3,7^]decane
;
_chemical_name_common
;
hexamethylenetetramine; urotropine
;
_cell_volume    250.619
_exptl_crystal_colour 'colorless'
_exptl_crystal_density_diffrn 1.858
_exptl_crystal_description 'block'
_diffrn_ambient_temperature 293
_diffrn_ambient_pressure 12080000.0
_diffrn_radiation_probe x-ray
_diffrn_source synchrotron
#These two values have been output from a single CSD field.
_refine_ls_R_factor_gt 0.0489
_refine_ls_wR_factor_gt 0.0489
_symmetry_cell_setting cubic
_symmetry_space_group_name_H-M 'I -4 3 m'
_symmetry_Int_Tables_number 217
loop_
_symmetry_equiv_pos_site_id
_symmetry_equiv_pos_as_xyz
1 x,y,z
2 -x,-y,z
3 -x,y,-z
4 x,-y,-z
5 z,x,y
6 z,-x,-y
7 -z,-x,y
8 -z,x,-y
9 y,z,x
10 -y,z,-x
11 y,-z,-x
12 -y,-z,x
13 y,x,z
14 -y,-x,z
15 y,-x,-z
16 -y,x,-z
17 x,z,y
18 -x,z,-y
19 -x,-z,y
20 x,-z,-y
21 z,y,x
22 z,-y,-x
23 -z,y,-x
24 -z,-y,x
25 1/2+x,1/2+y,1/2+z
26 1/2-x,1/2-y,1/2+z
27 1/2-x,1/2+y,1/2-z
28 1/2+x,1/2-y,1/2-z
29 1/2+z,1/2+x,1/2+y
30 1/2+z,1/2-x,1/2-y
31 1/2-z,1/2-x,1/2+y
32 1/2-z,1/2+x,1/2-y
33 1/2+y,1/2+z,1/2+x
34 1/2-y,1/2+z,1/2-x
35 1/2+y,1/2-z,1/2-x
36 1/2-y,1/2-z,1/2+x
37 1/2+y,1/2+x,1/2+z
38 1/2-y,1/2-x,1/2+z
39 1/2+y,1/2-x,1/2-z
40 1/2-y,1/2+x,1/2-z
41 1/2+x,1/2+z,1/2+y
42 1/2-x,1/2+z,1/2-y
43 1/2-x,1/2-z,1/2+y
44 1/2+x,1/2-z,1/2-y
45 1/2+z,1/2+y,1/2+x
46 1/2+z,1/2-y,1/2-x
47 1/2-z,1/2+y,1/2-x
48 1/2-z,1/2-y,1/2+x
_cell_length_a 6.3048(4)
_cell_length_b 6.3048(4)
_cell_length_c 6.3048(4)
_cell_angle_alpha 90
_cell_angle_beta 90
_cell_angle_gamma 90
_cell_formula_units_Z 2
loop_
_atom_type_symbol
_atom_type_radius_bond
C 0.68
H 0.23
N 0.68
loop_
_atom_site_label
_atom_site_type_symbol
_atom_site_fract_x
_atom_site_fract_y
_atom_site_fract_z
N1 N 0.1359(3) 0.1359(3) 0.1359(3)
C1 C 0.2644(5) 0.00000 0.00000
H1 H 0.35502 0.08793 -0.08793
N1C N 0.1359(3) -0.1359(3) -0.1359(3)
H1C H 0.35502 -0.08793 0.08793
C1D C 0.0000(5) 0.26440 0.00000
H1D H -0.08793 0.35502 0.08793
C1E C 0.0000(5) -0.26440 0.00000
H1E H -0.08793 -0.35502 -0.08793
N1A N -0.1359(3) -0.1359(3) 0.1359(3)
H1F H 0.08793 -0.35502 0.08793
N1B N -0.1359(3) 0.1359(3) -0.1359(3)
H1G H 0.08793 0.35502 -0.08793
C1H C 0.0000(5) 0.00000 0.26440
H1H H 0.08793 -0.08793 0.35502
C1I C 0.0000(5) 0.00000 -0.26440
H1I H -0.08793 -0.08793 -0.35502
H1J H 0.08793 0.08793 -0.35502
H1K H -0.08793 0.08793 0.35502
C1A C -0.2644(5) 0.00000 0.00000
H1A H -0.35502 -0.08793 -0.08793
H1B H -0.35502 0.08793 0.08793
#END

data_CSD_CIF_QAMCAM32
_audit_creation_date 2020-12-18
_audit_creation_method CSD-ConQuest-V1
_database_code_CSD QAMCAM32
_database_code_depnum_ccdc_archive 'CCDC 1982590'
_chemical_formula_sum 'C6 H12 N4'
_chemical_formula_moiety
;
C6 H12 N4
;
_journal_coden_Cambridge 1220
_journal_volume 27
_journal_year 2020
_journal_page_first 1094
_journal_name_full 'Chem.-Eur.J. '
loop_
_publ_author_name
"P.A.Gunka"
"A.Olejniczak"
"S.Fanetti"
"R.Bini"
"I.E.Collings"
"V.Svitlyk"
"K.F.Dziubek"
_chemical_name_systematic
;
1,3,5,7-tetraazatricyclo[3.3.1.1^3,7^]decane
;
_chemical_name_common
;
hexamethylenetetramine; urotropine
;
_cell_volume    249.024
_exptl_crystal_colour 'colorless'
_exptl_crystal_density_diffrn 1.87
_exptl_crystal_description 'block'
_diffrn_ambient_temperature 293
_diffrn_ambient_pressure 12280000.0
_diffrn_radiation_probe x-ray
_diffrn_source synchrotron
#These two values have been output from a single CSD field.
_refine_ls_R_factor_gt 0.0499
_refine_ls_wR_factor_gt 0.0499
_symmetry_cell_setting cubic
_symmetry_space_group_name_H-M 'I -4 3 m'
_symmetry_Int_Tables_number 217
loop_
_symmetry_equiv_pos_site_id
_symmetry_equiv_pos_as_xyz
1 x,y,z
2 -x,-y,z
3 -x,y,-z
4 x,-y,-z
5 z,x,y
6 z,-x,-y
7 -z,-x,y
8 -z,x,-y
9 y,z,x
10 -y,z,-x
11 y,-z,-x
12 -y,-z,x
13 y,x,z
14 -y,-x,z
15 y,-x,-z
16 -y,x,-z
17 x,z,y
18 -x,z,-y
19 -x,-z,y
20 x,-z,-y
21 z,y,x
22 z,-y,-x
23 -z,y,-x
24 -z,-y,x
25 1/2+x,1/2+y,1/2+z
26 1/2-x,1/2-y,1/2+z
27 1/2-x,1/2+y,1/2-z
28 1/2+x,1/2-y,1/2-z
29 1/2+z,1/2+x,1/2+y
30 1/2+z,1/2-x,1/2-y
31 1/2-z,1/2-x,1/2+y
32 1/2-z,1/2+x,1/2-y
33 1/2+y,1/2+z,1/2+x
34 1/2-y,1/2+z,1/2-x
35 1/2+y,1/2-z,1/2-x
36 1/2-y,1/2-z,1/2+x
37 1/2+y,1/2+x,1/2+z
38 1/2-y,1/2-x,1/2+z
39 1/2+y,1/2-x,1/2-z
40 1/2-y,1/2+x,1/2-z
41 1/2+x,1/2+z,1/2+y
42 1/2-x,1/2+z,1/2-y
43 1/2-x,1/2-z,1/2+y
44 1/2+x,1/2-z,1/2-y
45 1/2+z,1/2+y,1/2+x
46 1/2+z,1/2-y,1/2-x
47 1/2-z,1/2+y,1/2-x
48 1/2-z,1/2-y,1/2+x
_cell_length_a 6.2914(3)
_cell_length_b 6.2914(3)
_cell_length_c 6.2914(3)
_cell_angle_alpha 90
_cell_angle_beta 90
_cell_angle_gamma 90
_cell_formula_units_Z 2
loop_
_atom_type_symbol
_atom_type_radius_bond
C 0.68
H 0.23
N 0.68
loop_
_atom_site_label
_atom_site_type_symbol
_atom_site_fract_x
_atom_site_fract_y
_atom_site_fract_z
N1 N 0.1359(3) 0.1359(3) 0.1359(3)
C1 C 0.2646(4) 0.00000 0.00000
H1 H 0.35535 0.08812 -0.08812
N1C N 0.1359(3) -0.1359(3) -0.1359(3)
H1C H 0.35535 -0.08812 0.08812
C1D C 0.0000(4) 0.26460 0.00000
H1D H -0.08812 0.35535 0.08812
C1E C 0.0000(4) -0.26460 0.00000
H1E H -0.08812 -0.35535 -0.08812
N1A N -0.1359(3) -0.1359(3) 0.1359(3)
H1F H 0.08812 -0.35535 0.08812
N1B N -0.1359(3) 0.1359(3) -0.1359(3)
H1G H 0.08812 0.35535 -0.08812
C1H C 0.0000(4) 0.00000 0.26460
H1H H 0.08812 -0.08812 0.35535
C1I C 0.0000(4) 0.00000 -0.26460
H1I H -0.08812 -0.08812 -0.35535
H1J H 0.08812 0.08812 -0.35535
H1K H -0.08812 0.08812 0.35535
C1A C -0.2646(4) 0.00000 0.00000
H1A H -0.35535 -0.08812 -0.08812
H1B H -0.35535 0.08812 0.08812
#END

data_CSD_CIF_QAMCAM33
_audit_creation_date 2020-12-18
_audit_creation_method CSD-ConQuest-V1
_database_code_CSD QAMCAM33
_database_code_depnum_ccdc_archive 'CCDC 1982591'
_chemical_formula_sum 'C6 H12 N4'
_chemical_formula_moiety
;
C6 H12 N4
;
_journal_coden_Cambridge 1220
_journal_volume 27
_journal_year 2020
_journal_page_first 1094
_journal_name_full 'Chem.-Eur.J. '
loop_
_publ_author_name
"P.A.Gunka"
"A.Olejniczak"
"S.Fanetti"
"R.Bini"
"I.E.Collings"
"V.Svitlyk"
"K.F.Dziubek"
_chemical_name_systematic
;
1,3,5,7-tetraazatricyclo[3.3.1.1^3,7^]decane
;
_chemical_name_common
;
hexamethylenetetramine; urotropine
;
_cell_volume    247.614
_exptl_crystal_colour 'colorless'
_exptl_crystal_density_diffrn 1.88
_exptl_crystal_description 'block'
_diffrn_ambient_temperature 293
_diffrn_ambient_pressure 12820000.0
_diffrn_radiation_probe x-ray
_diffrn_source synchrotron
#These two values have been output from a single CSD field.
_refine_ls_R_factor_gt 0.0386
_refine_ls_wR_factor_gt 0.0386
_symmetry_cell_setting cubic
_symmetry_space_group_name_H-M 'I -4 3 m'
_symmetry_Int_Tables_number 217
loop_
_symmetry_equiv_pos_site_id
_symmetry_equiv_pos_as_xyz
1 x,y,z
2 -x,-y,z
3 -x,y,-z
4 x,-y,-z
5 z,x,y
6 z,-x,-y
7 -z,-x,y
8 -z,x,-y
9 y,z,x
10 -y,z,-x
11 y,-z,-x
12 -y,-z,x
13 y,x,z
14 -y,-x,z
15 y,-x,-z
16 -y,x,-z
17 x,z,y
18 -x,z,-y
19 -x,-z,y
20 x,-z,-y
21 z,y,x
22 z,-y,-x
23 -z,y,-x
24 -z,-y,x
25 1/2+x,1/2+y,1/2+z
26 1/2-x,1/2-y,1/2+z
27 1/2-x,1/2+y,1/2-z
28 1/2+x,1/2-y,1/2-z
29 1/2+z,1/2+x,1/2+y
30 1/2+z,1/2-x,1/2-y
31 1/2-z,1/2-x,1/2+y
32 1/2-z,1/2+x,1/2-y
33 1/2+y,1/2+z,1/2+x
34 1/2-y,1/2+z,1/2-x
35 1/2+y,1/2-z,1/2-x
36 1/2-y,1/2-z,1/2+x
37 1/2+y,1/2+x,1/2+z
38 1/2-y,1/2-x,1/2+z
39 1/2+y,1/2-x,1/2-z
40 1/2-y,1/2+x,1/2-z
41 1/2+x,1/2+z,1/2+y
42 1/2-x,1/2+z,1/2-y
43 1/2-x,1/2-z,1/2+y
44 1/2+x,1/2-z,1/2-y
45 1/2+z,1/2+y,1/2+x
46 1/2+z,1/2-y,1/2-x
47 1/2-z,1/2+y,1/2-x
48 1/2-z,1/2-y,1/2+x
_cell_length_a 6.2795(2)
_cell_length_b 6.2795(2)
_cell_length_c 6.2795(2)
_cell_angle_alpha 90
_cell_angle_beta 90
_cell_angle_gamma 90
_cell_formula_units_Z 2
loop_
_atom_type_symbol
_atom_type_radius_bond
C 0.68
H 0.23
N 0.68
loop_
_atom_site_label
_atom_site_type_symbol
_atom_site_fract_x
_atom_site_fract_y
_atom_site_fract_z
N1 N 0.1365(3) 0.1365(3) 0.1365(3)
C1 C 0.2646(4) 0.00000 0.00000
H1 H 0.35562 0.08825 -0.08825
N1C N 0.1365(3) -0.1365(3) -0.1365(3)
H1C H 0.35562 -0.08825 0.08825
C1D C 0.0000(4) 0.26460 0.00000
H1D H -0.08825 0.35562 0.08825
C1E C 0.0000(4) -0.26460 0.00000
H1E H -0.08825 -0.35562 -0.08825
N1A N -0.1365(3) -0.1365(3) 0.1365(3)
H1F H 0.08825 -0.35562 0.08825
N1B N -0.1365(3) 0.1365(3) -0.1365(3)
H1G H 0.08825 0.35562 -0.08825
C1H C 0.0000(4) 0.00000 0.26460
H1H H 0.08825 -0.08825 0.35562
C1I C 0.0000(4) 0.00000 -0.26460
H1I H -0.08825 -0.08825 -0.35562
H1J H 0.08825 0.08825 -0.35562
H1K H -0.08825 0.08825 0.35562
C1A C -0.2646(4) 0.00000 0.00000
H1A H -0.35562 -0.08825 -0.08825
H1B H -0.35562 0.08825 0.08825
#END

data_CSD_CIF_QAMCAM34
_audit_creation_date 2020-12-18
_audit_creation_method CSD-ConQuest-V1
_database_code_CSD QAMCAM34
_database_code_depnum_ccdc_archive 'CCDC 1982592'
_chemical_formula_sum 'C6 H12 N4'
_chemical_formula_moiety
;
C6 H12 N4
;
_journal_coden_Cambridge 1220
_journal_volume 27
_journal_year 2020
_journal_page_first 1094
_journal_name_full 'Chem.-Eur.J. '
loop_
_publ_author_name
"P.A.Gunka"
"A.Olejniczak"
"S.Fanetti"
"R.Bini"
"I.E.Collings"
"V.Svitlyk"
"K.F.Dziubek"
_chemical_name_systematic
;
1,3,5,7-tetraazatricyclo[3.3.1.1^3,7^]decane
;
_chemical_name_common
;
hexamethylenetetramine; urotropine
;
_cell_volume    246.846
_exptl_crystal_colour 'colorless'
_exptl_crystal_density_diffrn 1.886
_exptl_crystal_description 'block'
_diffrn_ambient_temperature 293
_diffrn_ambient_pressure 13130000.0
_diffrn_radiation_probe x-ray
_diffrn_source synchrotron
#These two values have been output from a single CSD field.
_refine_ls_R_factor_gt 0.0331
_refine_ls_wR_factor_gt 0.0331
_symmetry_cell_setting cubic
_symmetry_space_group_name_H-M 'I -4 3 m'
_symmetry_Int_Tables_number 217
loop_
_symmetry_equiv_pos_site_id
_symmetry_equiv_pos_as_xyz
1 x,y,z
2 -x,-y,z
3 -x,y,-z
4 x,-y,-z
5 z,x,y
6 z,-x,-y
7 -z,-x,y
8 -z,x,-y
9 y,z,x
10 -y,z,-x
11 y,-z,-x
12 -y,-z,x
13 y,x,z
14 -y,-x,z
15 y,-x,-z
16 -y,x,-z
17 x,z,y
18 -x,z,-y
19 -x,-z,y
20 x,-z,-y
21 z,y,x
22 z,-y,-x
23 -z,y,-x
24 -z,-y,x
25 1/2+x,1/2+y,1/2+z
26 1/2-x,1/2-y,1/2+z
27 1/2-x,1/2+y,1/2-z
28 1/2+x,1/2-y,1/2-z
29 1/2+z,1/2+x,1/2+y
30 1/2+z,1/2-x,1/2-y
31 1/2-z,1/2-x,1/2+y
32 1/2-z,1/2+x,1/2-y
33 1/2+y,1/2+z,1/2+x
34 1/2-y,1/2+z,1/2-x
35 1/2+y,1/2-z,1/2-x
36 1/2-y,1/2-z,1/2+x
37 1/2+y,1/2+x,1/2+z
38 1/2-y,1/2-x,1/2+z
39 1/2+y,1/2-x,1/2-z
40 1/2-y,1/2+x,1/2-z
41 1/2+x,1/2+z,1/2+y
42 1/2-x,1/2+z,1/2-y
43 1/2-x,1/2-z,1/2+y
44 1/2+x,1/2-z,1/2-y
45 1/2+z,1/2+y,1/2+x
46 1/2+z,1/2-y,1/2-x
47 1/2-z,1/2+y,1/2-x
48 1/2-z,1/2-y,1/2+x
_cell_length_a 6.2730(1)
_cell_length_b 6.2730(1)
_cell_length_c 6.2730(1)
_cell_angle_alpha 90
_cell_angle_beta 90
_cell_angle_gamma 90
_cell_formula_units_Z 2
loop_
_atom_type_symbol
_atom_type_radius_bond
C 0.68
H 0.23
N 0.68
loop_
_atom_site_label
_atom_site_type_symbol
_atom_site_fract_x
_atom_site_fract_y
_atom_site_fract_z
N1 N 0.1365(3) 0.1365(3) 0.1365(3)
C1 C 0.2652(4) 0.00000 0.00000
H1 H 0.35625 0.08836 -0.08836
N1C N 0.1365(3) -0.1365(3) -0.1365(3)
H1C H 0.35625 -0.08836 0.08836
C1D C 0.0000(4) 0.26520 0.00000
H1D H -0.08836 0.35625 0.08836
C1E C 0.0000(4) -0.26520 0.00000
H1E H -0.08836 -0.35625 -0.08836
N1A N -0.1365(3) -0.1365(3) 0.1365(3)
H1F H 0.08836 -0.35625 0.08836
N1B N -0.1365(3) 0.1365(3) -0.1365(3)
H1G H 0.08836 0.35625 -0.08836
C1H C 0.0000(4) 0.00000 0.26520
H1H H 0.08836 -0.08836 0.35625
C1I C 0.0000(4) 0.00000 -0.26520
H1I H -0.08836 -0.08836 -0.35625
H1J H 0.08836 0.08836 -0.35625
H1K H -0.08836 0.08836 0.35625
C1A C -0.2652(4) 0.00000 0.00000
H1A H -0.35625 -0.08836 -0.08836
H1B H -0.35625 0.08836 0.08836
#END

data_CSD_CIF_QAMCAM35
_audit_creation_date 2020-12-15
_audit_creation_method CSD-ConQuest-V1
_database_code_CSD QAMCAM35
_database_code_depnum_ccdc_archive 'CCDC 2005102'
_chemical_formula_sum 'C6 H12 N4'
_chemical_formula_moiety
;
C6 H12 N4
;
_journal_coden_Cambridge 1220
_journal_volume 27
_journal_year 2020
_journal_page_first 1094
_journal_name_full 'Chem.-Eur.J. '
loop_
_publ_author_name
"P.A.Gunka"
"A.Olejniczak"
"S.Fanetti"
"R.Bini"
"I.E.Collings"
"V.Svitlyk"
"K.F.Dziubek"
_chemical_name_systematic
;
1,3,5,7-tetraazatricyclo[3.3.1.1^3,7^]decane
;
_chemical_name_common
;
hexamethylenetetramine; urotropine
;
_cell_volume    335.500
_exptl_crystal_colour 'colorless'
_exptl_crystal_density_diffrn 1.388
_exptl_crystal_description 'block'
_diffrn_ambient_temperature 293
_diffrn_ambient_pressure 340000.0
_diffrn_radiation_probe x-ray
_diffrn_source synchrotron
_refine_special_details
;
Hirshfeld Atom Refinement

;
#These two values have been output from a single CSD field.
_refine_ls_R_factor_gt 0.0294
_refine_ls_wR_factor_gt 0.0294
_symmetry_cell_setting cubic
_symmetry_space_group_name_H-M 'I -4 3 m'
_symmetry_Int_Tables_number 217
loop_
_symmetry_equiv_pos_site_id
_symmetry_equiv_pos_as_xyz
1 x,y,z
2 1/2+x,1/2+y,1/2+z
3 y,-x,-z
4 x,-y,-z
5 z,x,y
6 1/2+y,1/2-x,1/2-z
7 1/2+x,1/2-y,1/2-z
8 1/2+z,1/2+x,1/2+y
9 -x,-y,z
10 y,x,z
11 -z,y,-x
12 1/2-x,1/2-y,1/2+z
13 1/2+y,1/2+x,1/2+z
14 1/2-z,1/2+y,1/2-x
15 -y,x,-z
16 -x,y,-z
17 z,-x,-y
18 1/2-y,1/2+x,1/2-z
19 1/2-x,1/2+y,1/2-z
20 1/2+z,1/2-x,1/2-y
21 -y,-x,z
22 -z,-y,x
23 1/2-y,1/2-x,1/2+z
24 1/2-z,1/2-y,1/2+x
25 -z,x,-y
26 1/2-z,1/2+x,1/2-y
27 z,-y,-x
28 1/2+z,1/2-y,1/2-x
29 -z,-x,y
30 1/2-z,1/2-x,1/2+y
31 z,y,x
32 1/2+z,1/2+y,1/2+x
33 x,-z,-y
34 y,z,x
35 1/2+x,1/2-z,1/2-y
36 1/2+y,1/2+z,1/2+x
37 x,z,y
38 1/2+x,1/2+z,1/2+y
39 -x,z,-y
40 y,-z,-x
41 1/2-x,1/2+z,1/2-y
42 1/2+y,1/2-z,1/2-x
43 -x,-z,y
44 1/2-x,1/2-z,1/2+y
45 -y,z,-x
46 1/2-y,1/2+z,1/2-x
47 -y,-z,x
48 1/2-y,1/2-z,1/2+x
_cell_length_a 6.94860(17)
_cell_length_b 6.94860(17)
_cell_length_c 6.94860(17)
_cell_angle_alpha 90
_cell_angle_beta 90
_cell_angle_gamma 90
_cell_formula_units_Z 2
loop_
_atom_type_symbol
_atom_type_radius_bond
C 0.68
H 0.23
N 0.68
loop_
_atom_site_label
_atom_site_type_symbol
_atom_site_fract_x
_atom_site_fract_y
_atom_site_fract_z
N1 N -0.12356(14) -0.12356(14) -0.12356(14)
C1 C -0.2407(3) 0.00000 0.00000
H1 H -0.331(3) -0.096(3) 0.096(3)
N1B N -0.12356(14) 0.12356(14) 0.12356(14)
C1B C 0.0000(3) 0.24070 0.00000
H1B H -0.096(3) 0.331(3) -0.096(3)
H1C H -0.331(3) 0.096(3) -0.096(3)
C1D C 0.0000(3) -0.24070 0.00000
H1D H 0.096(3) -0.331(3) -0.096(3)
N1H N 0.12356(14) 0.12356(14) -0.12356(14)
C1H C 0.2407(3) 0.00000 0.00000
H1H H 0.331(3) 0.096(3) 0.096(3)
H1I H -0.096(3) -0.331(3) 0.096(3)
N1J N 0.12356(14) -0.12356(14) 0.12356(14)
C1J C 0.0000(3) 0.00000 0.24070
H1J H -0.096(3) -0.096(3) 0.331(3)
H1O H 0.331(3) -0.096(3) -0.096(3)
H1P H 0.096(3) 0.331(3) 0.096(3)
C1U C 0.0000(3) 0.00000 -0.24070
H1U H -0.096(3) 0.096(3) -0.331(3)
H1Z H 0.096(3) 0.096(3) 0.331(3)
H1DA H 0.096(3) -0.096(3) -0.331(3)
#END

data_CSD_CIF_QAMCAM36
_audit_creation_date 2020-12-18
_audit_creation_method CSD-ConQuest-V1
_database_code_CSD QAMCAM36
_database_code_depnum_ccdc_archive 'CCDC 2005103'
_chemical_formula_sum 'C6 H12 N4'
_chemical_formula_moiety
;
C6 H12 N4
;
_journal_coden_Cambridge 1220
_journal_volume 27
_journal_year 2020
_journal_page_first 1094
_journal_name_full 'Chem.-Eur.J. '
loop_
_publ_author_name
"P.A.Gunka"
"A.Olejniczak"
"S.Fanetti"
"R.Bini"
"I.E.Collings"
"V.Svitlyk"
"K.F.Dziubek"
_chemical_name_systematic
;
1,3,5,7-tetraazatricyclo[3.3.1.1^3,7^]decane
;
_chemical_name_common
;
hexamethylenetetramine; urotropine
;
_cell_volume    331.302
_exptl_crystal_colour 'colorless'
_exptl_crystal_density_diffrn 1.405
_exptl_crystal_description 'block'
_diffrn_ambient_temperature 293
_diffrn_ambient_pressure 535000.0
_diffrn_radiation_probe x-ray
_diffrn_source synchrotron
_refine_special_details
;
Hirshfeld Atom Refinement

;
#These two values have been output from a single CSD field.
_refine_ls_R_factor_gt 0.0319
_refine_ls_wR_factor_gt 0.0319
_symmetry_cell_setting cubic
_symmetry_space_group_name_H-M 'I -4 3 m'
_symmetry_Int_Tables_number 217
loop_
_symmetry_equiv_pos_site_id
_symmetry_equiv_pos_as_xyz
1 x,y,z
2 1/2+x,1/2+y,1/2+z
3 y,-x,-z
4 x,-y,-z
5 z,x,y
6 1/2+y,1/2-x,1/2-z
7 1/2+x,1/2-y,1/2-z
8 1/2+z,1/2+x,1/2+y
9 -x,-y,z
10 y,x,z
11 -z,y,-x
12 1/2-x,1/2-y,1/2+z
13 1/2+y,1/2+x,1/2+z
14 1/2-z,1/2+y,1/2-x
15 -y,x,-z
16 -x,y,-z
17 z,-x,-y
18 1/2-y,1/2+x,1/2-z
19 1/2-x,1/2+y,1/2-z
20 1/2+z,1/2-x,1/2-y
21 -y,-x,z
22 -z,-y,x
23 1/2-y,1/2-x,1/2+z
24 1/2-z,1/2-y,1/2+x
25 -z,x,-y
26 1/2-z,1/2+x,1/2-y
27 z,-y,-x
28 1/2+z,1/2-y,1/2-x
29 -z,-x,y
30 1/2-z,1/2-x,1/2+y
31 z,y,x
32 1/2+z,1/2+y,1/2+x
33 x,-z,-y
34 y,z,x
35 1/2+x,1/2-z,1/2-y
36 1/2+y,1/2+z,1/2+x
37 x,z,y
38 1/2+x,1/2+z,1/2+y
39 -x,z,-y
40 y,-z,-x
41 1/2-x,1/2+z,1/2-y
42 1/2+y,1/2-z,1/2-x
43 -x,-z,y
44 1/2-x,1/2-z,1/2+y
45 -y,z,-x
46 1/2-y,1/2+z,1/2-x
47 -y,-z,x
48 1/2-y,1/2-z,1/2+x
_cell_length_a 6.9195(1)
_cell_length_b 6.9195(1)
_cell_length_c 6.9195(1)
_cell_angle_alpha 90
_cell_angle_beta 90
_cell_angle_gamma 90
_cell_formula_units_Z 2
loop_
_atom_type_symbol
_atom_type_radius_bond
C 0.68
H 0.23
N 0.68
loop_
_atom_site_label
_atom_site_type_symbol
_atom_site_fract_x
_atom_site_fract_y
_atom_site_fract_z
N1 N 0.12416(14) 0.12416(14) 0.12416(14)
C1 C 0.2420(3) 0.00000 0.00000
H1 H 0.328(3) 0.090(3) -0.090(3)
N1B N 0.12416(14) -0.12416(14) -0.12416(14)
C1B C 0.0000(3) -0.24200 0.00000
H1B H 0.090(3) -0.328(3) 0.090(3)
H1C H 0.328(3) -0.090(3) 0.090(3)
C1D C 0.0000(3) 0.24200 0.00000
H1D H -0.090(3) 0.328(3) 0.090(3)
N1H N -0.12416(14) -0.12416(14) 0.12416(14)
C1H C -0.2420(3) 0.00000 0.00000
H1H H -0.328(3) -0.090(3) -0.090(3)
H1I H 0.090(3) 0.328(3) -0.090(3)
N1J N -0.12416(14) 0.12416(14) -0.12416(14)
C1J C 0.0000(3) 0.00000 -0.24200
H1J H 0.090(3) 0.090(3) -0.328(3)
H1O H -0.328(3) 0.090(3) 0.090(3)
H1P H -0.090(3) -0.328(3) -0.090(3)
C1U C 0.0000(3) 0.00000 0.24200
H1U H 0.090(3) -0.090(3) 0.328(3)
H1Z H -0.090(3) -0.090(3) -0.328(3)
H1DA H -0.090(3) 0.090(3) 0.328(3)
#END

data_CSD_CIF_QAMCAM37
_audit_creation_date 2020-12-18
_audit_creation_method CSD-ConQuest-V1
_database_code_CSD QAMCAM37
_database_code_depnum_ccdc_archive 'CCDC 2005104'
_chemical_formula_sum 'C6 H12 N4'
_chemical_formula_moiety
;
C6 H12 N4
;
_journal_coden_Cambridge 1220
_journal_volume 27
_journal_year 2020
_journal_page_first 1094
_journal_name_full 'Chem.-Eur.J. '
loop_
_publ_author_name
"P.A.Gunka"
"A.Olejniczak"
"S.Fanetti"
"R.Bini"
"I.E.Collings"
"V.Svitlyk"
"K.F.Dziubek"
_chemical_name_systematic
;
1,3,5,7-tetraazatricyclo[3.3.1.1^3,7^]decane
;
_chemical_name_common
;
hexamethylenetetramine; urotropine
;
_cell_volume    323.663
_exptl_crystal_colour 'colorless'
_exptl_crystal_density_diffrn 1.439
_exptl_crystal_description 'block'
_diffrn_ambient_temperature 293
_diffrn_ambient_pressure 830000.0
_diffrn_radiation_probe x-ray
_diffrn_source synchrotron
_refine_special_details
;
Hirshfeld Atom Refinement

;
#These two values have been output from a single CSD field.
_refine_ls_R_factor_gt 0.0281
_refine_ls_wR_factor_gt 0.0281
_symmetry_cell_setting cubic
_symmetry_space_group_name_H-M 'I -4 3 m'
_symmetry_Int_Tables_number 217
loop_
_symmetry_equiv_pos_site_id
_symmetry_equiv_pos_as_xyz
1 x,y,z
2 1/2+x,1/2+y,1/2+z
3 y,-x,-z
4 x,-y,-z
5 z,x,y
6 1/2+y,1/2-x,1/2-z
7 1/2+x,1/2-y,1/2-z
8 1/2+z,1/2+x,1/2+y
9 -x,-y,z
10 y,x,z
11 -z,y,-x
12 1/2-x,1/2-y,1/2+z
13 1/2+y,1/2+x,1/2+z
14 1/2-z,1/2+y,1/2-x
15 -y,x,-z
16 -x,y,-z
17 z,-x,-y
18 1/2-y,1/2+x,1/2-z
19 1/2-x,1/2+y,1/2-z
20 1/2+z,1/2-x,1/2-y
21 -y,-x,z
22 -z,-y,x
23 1/2-y,1/2-x,1/2+z
24 1/2-z,1/2-y,1/2+x
25 -z,x,-y
26 1/2-z,1/2+x,1/2-y
27 z,-y,-x
28 1/2+z,1/2-y,1/2-x
29 -z,-x,y
30 1/2-z,1/2-x,1/2+y
31 z,y,x
32 1/2+z,1/2+y,1/2+x
33 x,-z,-y
34 y,z,x
35 1/2+x,1/2-z,1/2-y
36 1/2+y,1/2+z,1/2+x
37 x,z,y
38 1/2+x,1/2+z,1/2+y
39 -x,z,-y
40 y,-z,-x
41 1/2-x,1/2+z,1/2-y
42 1/2+y,1/2-z,1/2-x
43 -x,-z,y
44 1/2-x,1/2-z,1/2+y
45 -y,z,-x
46 1/2-y,1/2+z,1/2-x
47 -y,-z,x
48 1/2-y,1/2-z,1/2+x
_cell_length_a 6.8659(1)
_cell_length_b 6.8659(1)
_cell_length_c 6.8659(1)
_cell_angle_alpha 90
_cell_angle_beta 90
_cell_angle_gamma 90
_cell_formula_units_Z 2
loop_
_atom_type_symbol
_atom_type_radius_bond
C 0.68
H 0.23
N 0.68
loop_
_atom_site_label
_atom_site_type_symbol
_atom_site_fract_x
_atom_site_fract_y
_atom_site_fract_z
N1 N 0.12510(15) 0.12510(15) 0.12510(15)
C1 C 0.2442(3) 0.00000 0.00000
H1 H 0.335(3) 0.095(3) -0.095(3)
N1B N 0.12510(15) -0.12510(15) -0.12510(15)
C1B C 0.0000(3) -0.24420 0.00000
H1B H 0.095(3) -0.335(3) 0.095(3)
H1C H 0.335(3) -0.095(3) 0.095(3)
C1D C 0.0000(3) 0.24420 0.00000
H1D H -0.095(3) 0.335(3) 0.095(3)
N1H N -0.12510(15) -0.12510(15) 0.12510(15)
C1H C -0.2442(3) 0.00000 0.00000
H1H H -0.335(3) -0.095(3) -0.095(3)
H1I H 0.095(3) 0.335(3) -0.095(3)
N1J N -0.12510(15) 0.12510(15) -0.12510(15)
C1J C 0.0000(3) 0.00000 -0.24420
H1J H 0.095(3) 0.095(3) -0.335(3)
H1O H -0.335(3) 0.095(3) 0.095(3)
H1P H -0.095(3) -0.335(3) -0.095(3)
C1U C 0.0000(3) 0.00000 0.24420
H1U H 0.095(3) -0.095(3) 0.335(3)
H1Z H -0.095(3) -0.095(3) -0.335(3)
H1DA H -0.095(3) 0.095(3) 0.335(3)
#END

data_CSD_CIF_QAMCAM38
_audit_creation_date 2020-12-18
_audit_creation_method CSD-ConQuest-V1
_database_code_CSD QAMCAM38
_database_code_depnum_ccdc_archive 'CCDC 2005105'
_chemical_formula_sum 'C6 H12 N4'
_chemical_formula_moiety
;
C6 H12 N4
;
_journal_coden_Cambridge 1220
_journal_volume 27
_journal_year 2020
_journal_page_first 1094
_journal_name_full 'Chem.-Eur.J. '
loop_
_publ_author_name
"P.A.Gunka"
"A.Olejniczak"
"S.Fanetti"
"R.Bini"
"I.E.Collings"
"V.Svitlyk"
"K.F.Dziubek"
_chemical_name_systematic
;
1,3,5,7-tetraazatricyclo[3.3.1.1^3,7^]decane
;
_chemical_name_common
;
hexamethylenetetramine; urotropine
;
_cell_volume    321.202
_exptl_crystal_colour 'colorless'
_exptl_crystal_density_diffrn 1.45
_exptl_crystal_description 'block'
_diffrn_ambient_temperature 293
_diffrn_ambient_pressure 965000.0
_diffrn_radiation_probe x-ray
_diffrn_source synchrotron
_refine_special_details
;
Hirshfeld Atom Refinement

;
#These two values have been output from a single CSD field.
_refine_ls_R_factor_gt 0.0344
_refine_ls_wR_factor_gt 0.0344
_symmetry_cell_setting cubic
_symmetry_space_group_name_H-M 'I -4 3 m'
_symmetry_Int_Tables_number 217
loop_
_symmetry_equiv_pos_site_id
_symmetry_equiv_pos_as_xyz
1 x,y,z
2 1/2+x,1/2+y,1/2+z
3 y,-x,-z
4 x,-y,-z
5 z,x,y
6 1/2+y,1/2-x,1/2-z
7 1/2+x,1/2-y,1/2-z
8 1/2+z,1/2+x,1/2+y
9 -x,-y,z
10 y,x,z
11 -z,y,-x
12 1/2-x,1/2-y,1/2+z
13 1/2+y,1/2+x,1/2+z
14 1/2-z,1/2+y,1/2-x
15 -y,x,-z
16 -x,y,-z
17 z,-x,-y
18 1/2-y,1/2+x,1/2-z
19 1/2-x,1/2+y,1/2-z
20 1/2+z,1/2-x,1/2-y
21 -y,-x,z
22 -z,-y,x
23 1/2-y,1/2-x,1/2+z
24 1/2-z,1/2-y,1/2+x
25 -z,x,-y
26 1/2-z,1/2+x,1/2-y
27 z,-y,-x
28 1/2+z,1/2-y,1/2-x
29 -z,-x,y
30 1/2-z,1/2-x,1/2+y
31 z,y,x
32 1/2+z,1/2+y,1/2+x
33 x,-z,-y
34 y,z,x
35 1/2+x,1/2-z,1/2-y
36 1/2+y,1/2+z,1/2+x
37 x,z,y
38 1/2+x,1/2+z,1/2+y
39 -x,z,-y
40 y,-z,-x
41 1/2-x,1/2+z,1/2-y
42 1/2+y,1/2-z,1/2-x
43 -x,-z,y
44 1/2-x,1/2-z,1/2+y
45 -y,z,-x
46 1/2-y,1/2+z,1/2-x
47 -y,-z,x
48 1/2-y,1/2-z,1/2+x
_cell_length_a 6.84846(12)
_cell_length_b 6.84846(12)
_cell_length_c 6.84846(12)
_cell_angle_alpha 90
_cell_angle_beta 90
_cell_angle_gamma 90
_cell_formula_units_Z 2
loop_
_atom_type_symbol
_atom_type_radius_bond
C 0.68
H 0.23
N 0.68
loop_
_atom_site_label
_atom_site_type_symbol
_atom_site_fract_x
_atom_site_fract_y
_atom_site_fract_z
N1 N 0.12536(14) 0.12536(14) 0.12536(14)
C1 C 0.2448(3) 0.00000 0.00000
H1 H 0.338(3) 0.095(3) -0.095(3)
N1B N 0.12536(14) -0.12536(14) -0.12536(14)
C1B C 0.0000(3) -0.24480 0.00000
H1B H 0.095(3) -0.338(3) 0.095(3)
H1C H 0.338(3) -0.095(3) 0.095(3)
C1D C 0.0000(3) 0.24480 0.00000
H1D H -0.095(3) 0.338(3) 0.095(3)
N1H N -0.12536(14) -0.12536(14) 0.12536(14)
C1H C -0.2448(3) 0.00000 0.00000
H1H H -0.338(3) -0.095(3) -0.095(3)
H1I H 0.095(3) 0.338(3) -0.095(3)
N1J N -0.12536(14) 0.12536(14) -0.12536(14)
C1J C 0.0000(3) 0.00000 -0.24480
H1J H 0.095(3) 0.095(3) -0.338(3)
H1O H -0.338(3) 0.095(3) 0.095(3)
H1P H -0.095(3) -0.338(3) -0.095(3)
C1U C 0.0000(3) 0.00000 0.24480
H1U H 0.095(3) -0.095(3) 0.338(3)
H1Z H -0.095(3) -0.095(3) -0.338(3)
H1DA H -0.095(3) 0.095(3) 0.338(3)
#END

data_CSD_CIF_QAMCAM39
_audit_creation_date 2020-12-18
_audit_creation_method CSD-ConQuest-V1
_database_code_CSD QAMCAM39
_database_code_depnum_ccdc_archive 'CCDC 2005106'
_chemical_formula_sum 'C6 H12 N4'
_chemical_formula_moiety
;
C6 H12 N4
;
_journal_coden_Cambridge 1220
_journal_volume 27
_journal_year 2020
_journal_page_first 1094
_journal_name_full 'Chem.-Eur.J. '
loop_
_publ_author_name
"P.A.Gunka"
"A.Olejniczak"
"S.Fanetti"
"R.Bini"
"I.E.Collings"
"V.Svitlyk"
"K.F.Dziubek"
_chemical_name_systematic
;
1,3,5,7-tetraazatricyclo[3.3.1.1^3,7^]decane
;
_chemical_name_common
;
hexamethylenetetramine; urotropine
;
_cell_volume    315.362
_exptl_crystal_colour 'colorless'
_exptl_crystal_density_diffrn 1.476
_exptl_crystal_description 'block'
_diffrn_ambient_temperature 293
_diffrn_ambient_pressure 1210000.0
_diffrn_radiation_probe x-ray
_diffrn_source synchrotron
_refine_special_details
;
Hirshfeld Atom Refinement

;
#These two values have been output from a single CSD field.
_refine_ls_R_factor_gt 0.0321
_refine_ls_wR_factor_gt 0.0321
_symmetry_cell_setting cubic
_symmetry_space_group_name_H-M 'I -4 3 m'
_symmetry_Int_Tables_number 217
loop_
_symmetry_equiv_pos_site_id
_symmetry_equiv_pos_as_xyz
1 x,y,z
2 1/2+x,1/2+y,1/2+z
3 y,-x,-z
4 x,-y,-z
5 z,x,y
6 1/2+y,1/2-x,1/2-z
7 1/2+x,1/2-y,1/2-z
8 1/2+z,1/2+x,1/2+y
9 -x,-y,z
10 y,x,z
11 -z,y,-x
12 1/2-x,1/2-y,1/2+z
13 1/2+y,1/2+x,1/2+z
14 1/2-z,1/2+y,1/2-x
15 -y,x,-z
16 -x,y,-z
17 z,-x,-y
18 1/2-y,1/2+x,1/2-z
19 1/2-x,1/2+y,1/2-z
20 1/2+z,1/2-x,1/2-y
21 -y,-x,z
22 -z,-y,x
23 1/2-y,1/2-x,1/2+z
24 1/2-z,1/2-y,1/2+x
25 -z,x,-y
26 1/2-z,1/2+x,1/2-y
27 z,-y,-x
28 1/2+z,1/2-y,1/2-x
29 -z,-x,y
30 1/2-z,1/2-x,1/2+y
31 z,y,x
32 1/2+z,1/2+y,1/2+x
33 x,-z,-y
34 y,z,x
35 1/2+x,1/2-z,1/2-y
36 1/2+y,1/2+z,1/2+x
37 x,z,y
38 1/2+x,1/2+z,1/2+y
39 -x,z,-y
40 y,-z,-x
41 1/2-x,1/2+z,1/2-y
42 1/2+y,1/2-z,1/2-x
43 -x,-z,y
44 1/2-x,1/2-z,1/2+y
45 -y,z,-x
46 1/2-y,1/2+z,1/2-x
47 -y,-z,x
48 1/2-y,1/2-z,1/2+x
_cell_length_a 6.8067(2)
_cell_length_b 6.8067(2)
_cell_length_c 6.8067(2)
_cell_angle_alpha 90
_cell_angle_beta 90
_cell_angle_gamma 90
_cell_formula_units_Z 2
loop_
_atom_type_symbol
_atom_type_radius_bond
C 0.68
H 0.23
N 0.68
loop_
_atom_site_label
_atom_site_type_symbol
_atom_site_fract_x
_atom_site_fract_y
_atom_site_fract_z
N1 N -0.12642(14) -0.12642(14) -0.12642(14)
C1 C -0.2465(3) 0.00000 0.00000
H1 H -0.340(3) 0.098(3) -0.098(3)
N1B N -0.12642(14) 0.12642(14) 0.12642(14)
C1B C 0.0000(3) 0.24650 0.00000
H1B H 0.098(3) 0.340(3) 0.098(3)
H1C H -0.340(3) -0.098(3) 0.098(3)
C1D C 0.0000(3) -0.24650 0.00000
H1D H -0.098(3) -0.340(3) 0.098(3)
N1H N 0.12642(14) 0.12642(14) -0.12642(14)
C1H C 0.2465(3) 0.00000 0.00000
H1H H 0.340(3) -0.098(3) -0.098(3)
H1I H 0.098(3) -0.340(3) -0.098(3)
N1J N 0.12642(14) -0.12642(14) 0.12642(14)
C1J C 0.0000(3) 0.00000 0.24650
H1J H 0.098(3) 0.098(3) 0.340(3)
H1O H 0.340(3) 0.098(3) 0.098(3)
H1P H -0.098(3) 0.340(3) -0.098(3)
C1U C 0.0000(3) 0.00000 -0.24650
H1U H 0.098(3) -0.098(3) -0.340(3)
H1Z H -0.098(3) -0.098(3) 0.340(3)
H1DA H -0.098(3) 0.098(3) -0.340(3)
#END

data_CSD_CIF_QAMCAM40
_audit_creation_date 2020-12-18
_audit_creation_method CSD-ConQuest-V1
_database_code_CSD QAMCAM40
_database_code_depnum_ccdc_archive 'CCDC 2005107'
_chemical_formula_sum 'C6 H12 N4'
_chemical_formula_moiety
;
C6 H12 N4
;
_journal_coden_Cambridge 1220
_journal_volume 27
_journal_year 2020
_journal_page_first 1094
_journal_name_full 'Chem.-Eur.J. '
loop_
_publ_author_name
"P.A.Gunka"
"A.Olejniczak"
"S.Fanetti"
"R.Bini"
"I.E.Collings"
"V.Svitlyk"
"K.F.Dziubek"
_chemical_name_systematic
;
1,3,5,7-tetraazatricyclo[3.3.1.1^3,7^]decane
;
_chemical_name_common
;
hexamethylenetetramine; urotropine
;
_cell_volume    312.249
_exptl_crystal_colour 'colorless'
_exptl_crystal_density_diffrn 1.491
_exptl_crystal_description 'block'
_diffrn_ambient_temperature 293
_diffrn_ambient_pressure 1370000.0
_diffrn_radiation_probe x-ray
_diffrn_source synchrotron
_refine_special_details
;
Hirshfeld Atom Refinement

;
#These two values have been output from a single CSD field.
_refine_ls_R_factor_gt 0.0282
_refine_ls_wR_factor_gt 0.0282
_symmetry_cell_setting cubic
_symmetry_space_group_name_H-M 'I -4 3 m'
_symmetry_Int_Tables_number 217
loop_
_symmetry_equiv_pos_site_id
_symmetry_equiv_pos_as_xyz
1 x,y,z
2 1/2+x,1/2+y,1/2+z
3 y,-x,-z
4 x,-y,-z
5 z,x,y
6 1/2+y,1/2-x,1/2-z
7 1/2+x,1/2-y,1/2-z
8 1/2+z,1/2+x,1/2+y
9 -x,-y,z
10 y,x,z
11 -z,y,-x
12 1/2-x,1/2-y,1/2+z
13 1/2+y,1/2+x,1/2+z
14 1/2-z,1/2+y,1/2-x
15 -y,x,-z
16 -x,y,-z
17 z,-x,-y
18 1/2-y,1/2+x,1/2-z
19 1/2-x,1/2+y,1/2-z
20 1/2+z,1/2-x,1/2-y
21 -y,-x,z
22 -z,-y,x
23 1/2-y,1/2-x,1/2+z
24 1/2-z,1/2-y,1/2+x
25 -z,x,-y
26 1/2-z,1/2+x,1/2-y
27 z,-y,-x
28 1/2+z,1/2-y,1/2-x
29 -z,-x,y
30 1/2-z,1/2-x,1/2+y
31 z,y,x
32 1/2+z,1/2+y,1/2+x
33 x,-z,-y
34 y,z,x
35 1/2+x,1/2-z,1/2-y
36 1/2+y,1/2+z,1/2+x
37 x,z,y
38 1/2+x,1/2+z,1/2+y
39 -x,z,-y
40 y,-z,-x
41 1/2-x,1/2+z,1/2-y
42 1/2+y,1/2-z,1/2-x
43 -x,-z,y
44 1/2-x,1/2-z,1/2+y
45 -y,z,-x
46 1/2-y,1/2+z,1/2-x
47 -y,-z,x
48 1/2-y,1/2-z,1/2+x
_cell_length_a 6.78423(18)
_cell_length_b 6.78423(18)
_cell_length_c 6.78423(18)
_cell_angle_alpha 90
_cell_angle_beta 90
_cell_angle_gamma 90
_cell_formula_units_Z 2
loop_
_atom_type_symbol
_atom_type_radius_bond
C 0.68
H 0.23
N 0.68
loop_
_atom_site_label
_atom_site_type_symbol
_atom_site_fract_x
_atom_site_fract_y
_atom_site_fract_z
N1 N 0.12667(12) 0.12667(12) 0.12667(12)
C1 C 0.2468(2) 0.00000 0.00000
H1 H 0.346(3) 0.100(3) -0.100(3)
N1B N 0.12667(12) -0.12667(12) -0.12667(12)
C1B C 0.0000(2) -0.24680 0.00000
H1B H 0.100(3) -0.346(3) 0.100(3)
H1C H 0.346(3) -0.100(3) 0.100(3)
C1D C 0.0000(2) 0.24680 0.00000
H1D H -0.100(3) 0.346(3) 0.100(3)
N1H N -0.12667(12) -0.12667(12) 0.12667(12)
C1H C -0.2468(2) 0.00000 0.00000
H1H H -0.346(3) -0.100(3) -0.100(3)
H1I H 0.100(3) 0.346(3) -0.100(3)
N1J N -0.12667(12) 0.12667(12) -0.12667(12)
C1J C 0.0000(2) 0.00000 -0.24680
H1J H 0.100(3) 0.100(3) -0.346(3)
H1O H -0.346(3) 0.100(3) 0.100(3)
H1P H -0.100(3) -0.346(3) -0.100(3)
C1U C 0.0000(2) 0.00000 0.24680
H1U H 0.100(3) -0.100(3) 0.346(3)
H1Z H -0.100(3) -0.100(3) -0.346(3)
H1DA H -0.100(3) 0.100(3) 0.346(3)
#END

data_CSD_CIF_QAMCAM41
_audit_creation_date 2020-12-18
_audit_creation_method CSD-ConQuest-V1
_database_code_CSD QAMCAM41
_database_code_depnum_ccdc_archive 'CCDC 2005108'
_chemical_formula_sum 'C6 H12 N4'
_chemical_formula_moiety
;
C6 H12 N4
;
_journal_coden_Cambridge 1220
_journal_volume 27
_journal_year 2020
_journal_page_first 1094
_journal_name_full 'Chem.-Eur.J. '
loop_
_publ_author_name
"P.A.Gunka"
"A.Olejniczak"
"S.Fanetti"
"R.Bini"
"I.E.Collings"
"V.Svitlyk"
"K.F.Dziubek"
_chemical_name_systematic
;
1,3,5,7-tetraazatricyclo[3.3.1.1^3,7^]decane
;
_chemical_name_common
;
hexamethylenetetramine; urotropine
;
_cell_volume    310.412
_exptl_crystal_colour 'colorless'
_exptl_crystal_density_diffrn 1.5
_exptl_crystal_description 'block'
_diffrn_ambient_temperature 293
_diffrn_ambient_pressure 1560000.0
_diffrn_radiation_probe x-ray
_diffrn_source synchrotron
_refine_special_details
;
Hirshfeld Atom Refinement

;
#These two values have been output from a single CSD field.
_refine_ls_R_factor_gt 0.0262
_refine_ls_wR_factor_gt 0.0262
_symmetry_cell_setting cubic
_symmetry_space_group_name_H-M 'I -4 3 m'
_symmetry_Int_Tables_number 217
loop_
_symmetry_equiv_pos_site_id
_symmetry_equiv_pos_as_xyz
1 x,y,z
2 1/2+x,1/2+y,1/2+z
3 y,-x,-z
4 x,-y,-z
5 z,x,y
6 1/2+y,1/2-x,1/2-z
7 1/2+x,1/2-y,1/2-z
8 1/2+z,1/2+x,1/2+y
9 -x,-y,z
10 y,x,z
11 -z,y,-x
12 1/2-x,1/2-y,1/2+z
13 1/2+y,1/2+x,1/2+z
14 1/2-z,1/2+y,1/2-x
15 -y,x,-z
16 -x,y,-z
17 z,-x,-y
18 1/2-y,1/2+x,1/2-z
19 1/2-x,1/2+y,1/2-z
20 1/2+z,1/2-x,1/2-y
21 -y,-x,z
22 -z,-y,x
23 1/2-y,1/2-x,1/2+z
24 1/2-z,1/2-y,1/2+x
25 -z,x,-y
26 1/2-z,1/2+x,1/2-y
27 z,-y,-x
28 1/2+z,1/2-y,1/2-x
29 -z,-x,y
30 1/2-z,1/2-x,1/2+y
31 z,y,x
32 1/2+z,1/2+y,1/2+x
33 x,-z,-y
34 y,z,x
35 1/2+x,1/2-z,1/2-y
36 1/2+y,1/2+z,1/2+x
37 x,z,y
38 1/2+x,1/2+z,1/2+y
39 -x,z,-y
40 y,-z,-x
41 1/2-x,1/2+z,1/2-y
42 1/2+y,1/2-z,1/2-x
43 -x,-z,y
44 1/2-x,1/2-z,1/2+y
45 -y,z,-x
46 1/2-y,1/2+z,1/2-x
47 -y,-z,x
48 1/2-y,1/2-z,1/2+x
_cell_length_a 6.7709(1)
_cell_length_b 6.7709(1)
_cell_length_c 6.7709(1)
_cell_angle_alpha 90
_cell_angle_beta 90
_cell_angle_gamma 90
_cell_formula_units_Z 2
loop_
_atom_type_symbol
_atom_type_radius_bond
C 0.68
H 0.23
N 0.68
loop_
_atom_site_label
_atom_site_type_symbol
_atom_site_fract_x
_atom_site_fract_y
_atom_site_fract_z
N1 N 0.12702(12) 0.12702(12) 0.12702(12)
C1 C 0.2478(2) 0.00000 0.00000
H1 H 0.339(3) 0.096(2) -0.096(2)
N1B N 0.12702(12) -0.12702(12) -0.12702(12)
C1B C 0.0000(2) -0.24780 0.00000
H1B H 0.096(3) -0.339(2) 0.096(2)
H1C H 0.339(3) -0.096(2) 0.096(2)
C1D C 0.0000(2) 0.24780 0.00000
H1D H -0.096(3) 0.339(2) 0.096(2)
N1H N -0.12702(12) -0.12702(12) 0.12702(12)
C1H C -0.2478(2) 0.00000 0.00000
H1H H -0.339(3) -0.096(2) -0.096(2)
H1I H 0.096(3) 0.339(2) -0.096(2)
N1J N -0.12702(12) 0.12702(12) -0.12702(12)
C1J C 0.0000(2) 0.00000 -0.24780
H1J H 0.096(3) 0.096(2) -0.339(2)
H1O H -0.339(3) 0.096(2) 0.096(2)
H1P H -0.096(3) -0.339(2) -0.096(2)
C1U C 0.0000(2) 0.00000 0.24780
H1U H 0.096(3) -0.096(2) 0.339(2)
H1Z H -0.096(3) -0.096(2) -0.339(2)
H1DA H -0.096(3) 0.096(2) 0.339(2)
#END

data_CSD_CIF_QAMCAM42
_audit_creation_date 2020-12-18
_audit_creation_method CSD-ConQuest-V1
_database_code_CSD QAMCAM42
_database_code_depnum_ccdc_archive 'CCDC 2005109'
_chemical_formula_sum 'C6 H12 N4'
_chemical_formula_moiety
;
C6 H12 N4
;
_journal_coden_Cambridge 1220
_journal_volume 27
_journal_year 2020
_journal_page_first 1094
_journal_name_full 'Chem.-Eur.J. '
loop_
_publ_author_name
"P.A.Gunka"
"A.Olejniczak"
"S.Fanetti"
"R.Bini"
"I.E.Collings"
"V.Svitlyk"
"K.F.Dziubek"
_chemical_name_systematic
;
1,3,5,7-tetraazatricyclo[3.3.1.1^3,7^]decane
;
_chemical_name_common
;
hexamethylenetetramine; urotropine
;
_cell_volume    307.342
_exptl_crystal_colour 'colorless'
_exptl_crystal_density_diffrn 1.515
_exptl_crystal_description 'block'
_diffrn_ambient_temperature 293
_diffrn_ambient_pressure 1770000.0
_diffrn_radiation_probe x-ray
_diffrn_source synchrotron
_refine_special_details
;
Hirshfeld Atom Refinement

;
#These two values have been output from a single CSD field.
_refine_ls_R_factor_gt 0.032
_refine_ls_wR_factor_gt 0.032
_symmetry_cell_setting cubic
_symmetry_space_group_name_H-M 'I -4 3 m'
_symmetry_Int_Tables_number 217
loop_
_symmetry_equiv_pos_site_id
_symmetry_equiv_pos_as_xyz
1 x,y,z
2 1/2+x,1/2+y,1/2+z
3 y,-x,-z
4 x,-y,-z
5 z,x,y
6 1/2+y,1/2-x,1/2-z
7 1/2+x,1/2-y,1/2-z
8 1/2+z,1/2+x,1/2+y
9 -x,-y,z
10 y,x,z
11 -z,y,-x
12 1/2-x,1/2-y,1/2+z
13 1/2+y,1/2+x,1/2+z
14 1/2-z,1/2+y,1/2-x
15 -y,x,-z
16 -x,y,-z
17 z,-x,-y
18 1/2-y,1/2+x,1/2-z
19 1/2-x,1/2+y,1/2-z
20 1/2+z,1/2-x,1/2-y
21 -y,-x,z
22 -z,-y,x
23 1/2-y,1/2-x,1/2+z
24 1/2-z,1/2-y,1/2+x
25 -z,x,-y
26 1/2-z,1/2+x,1/2-y
27 z,-y,-x
28 1/2+z,1/2-y,1/2-x
29 -z,-x,y
30 1/2-z,1/2-x,1/2+y
31 z,y,x
32 1/2+z,1/2+y,1/2+x
33 x,-z,-y
34 y,z,x
35 1/2+x,1/2-z,1/2-y
36 1/2+y,1/2+z,1/2+x
37 x,z,y
38 1/2+x,1/2+z,1/2+y
39 -x,z,-y
40 y,-z,-x
41 1/2-x,1/2+z,1/2-y
42 1/2+y,1/2-z,1/2-x
43 -x,-z,y
44 1/2-x,1/2-z,1/2+y
45 -y,z,-x
46 1/2-y,1/2+z,1/2-x
47 -y,-z,x
48 1/2-y,1/2-z,1/2+x
_cell_length_a 6.7485(1)
_cell_length_b 6.7485(1)
_cell_length_c 6.7485(1)
_cell_angle_alpha 90
_cell_angle_beta 90
_cell_angle_gamma 90
_cell_formula_units_Z 2
loop_
_atom_type_symbol
_atom_type_radius_bond
C 0.68
H 0.23
N 0.68
loop_
_atom_site_label
_atom_site_type_symbol
_atom_site_fract_x
_atom_site_fract_y
_atom_site_fract_z
N1 N 0.12726(15) 0.12726(15) 0.12726(15)
C1 C 0.2486(2) 0.00000 0.00000
H1 H 0.344(3) 0.092(3) -0.092(3)
N1B N 0.12726(15) -0.12726(15) -0.12726(15)
C1B C 0.0000(2) -0.24860 0.00000
H1B H 0.092(3) -0.344(3) 0.092(3)
H1C H 0.344(3) -0.092(3) 0.092(3)
C1D C 0.0000(2) 0.24860 0.00000
H1D H -0.092(3) 0.344(3) 0.092(3)
N1H N -0.12726(15) -0.12726(15) 0.12726(15)
C1H C -0.2486(2) 0.00000 0.00000
H1H H -0.344(3) -0.092(3) -0.092(3)
H1I H 0.092(3) 0.344(3) -0.092(3)
N1J N -0.12726(15) 0.12726(15) -0.12726(15)
C1J C 0.0000(2) 0.00000 -0.24860
H1J H 0.092(3) 0.092(3) -0.344(3)
H1O H -0.344(3) 0.092(3) 0.092(3)
H1P H -0.092(3) -0.344(3) -0.092(3)
C1U C 0.0000(2) 0.00000 0.24860
H1U H 0.092(3) -0.092(3) 0.344(3)
H1Z H -0.092(3) -0.092(3) -0.344(3)
H1DA H -0.092(3) 0.092(3) 0.344(3)
#END

data_CSD_CIF_QAMCAM43
_audit_creation_date 2020-12-18
_audit_creation_method CSD-ConQuest-V1
_database_code_CSD QAMCAM43
_database_code_depnum_ccdc_archive 'CCDC 2005110'
_chemical_formula_sum 'C6 H12 N4'
_chemical_formula_moiety
;
C6 H12 N4
;
_journal_coden_Cambridge 1220
_journal_volume 27
_journal_year 2020
_journal_page_first 1094
_journal_name_full 'Chem.-Eur.J. '
loop_
_publ_author_name
"P.A.Gunka"
"A.Olejniczak"
"S.Fanetti"
"R.Bini"
"I.E.Collings"
"V.Svitlyk"
"K.F.Dziubek"
_chemical_name_systematic
;
1,3,5,7-tetraazatricyclo[3.3.1.1^3,7^]decane
;
_chemical_name_common
;
hexamethylenetetramine; urotropine
;
_cell_volume    304.808
_exptl_crystal_colour 'colorless'
_exptl_crystal_density_diffrn 1.528
_exptl_crystal_description 'block'
_diffrn_ambient_temperature 293
_diffrn_ambient_pressure 1970000.0
_diffrn_radiation_probe x-ray
_diffrn_source synchrotron
_refine_special_details
;
Hirshfeld Atom Refinement

;
#These two values have been output from a single CSD field.
_refine_ls_R_factor_gt 0.0357
_refine_ls_wR_factor_gt 0.0357
_symmetry_cell_setting cubic
_symmetry_space_group_name_H-M 'I -4 3 m'
_symmetry_Int_Tables_number 217
loop_
_symmetry_equiv_pos_site_id
_symmetry_equiv_pos_as_xyz
1 x,y,z
2 1/2+x,1/2+y,1/2+z
3 y,-x,-z
4 x,-y,-z
5 z,x,y
6 1/2+y,1/2-x,1/2-z
7 1/2+x,1/2-y,1/2-z
8 1/2+z,1/2+x,1/2+y
9 -x,-y,z
10 y,x,z
11 -z,y,-x
12 1/2-x,1/2-y,1/2+z
13 1/2+y,1/2+x,1/2+z
14 1/2-z,1/2+y,1/2-x
15 -y,x,-z
16 -x,y,-z
17 z,-x,-y
18 1/2-y,1/2+x,1/2-z
19 1/2-x,1/2+y,1/2-z
20 1/2+z,1/2-x,1/2-y
21 -y,-x,z
22 -z,-y,x
23 1/2-y,1/2-x,1/2+z
24 1/2-z,1/2-y,1/2+x
25 -z,x,-y
26 1/2-z,1/2+x,1/2-y
27 z,-y,-x
28 1/2+z,1/2-y,1/2-x
29 -z,-x,y
30 1/2-z,1/2-x,1/2+y
31 z,y,x
32 1/2+z,1/2+y,1/2+x
33 x,-z,-y
34 y,z,x
35 1/2+x,1/2-z,1/2-y
36 1/2+y,1/2+z,1/2+x
37 x,z,y
38 1/2+x,1/2+z,1/2+y
39 -x,z,-y
40 y,-z,-x
41 1/2-x,1/2+z,1/2-y
42 1/2+y,1/2-z,1/2-x
43 -x,-z,y
44 1/2-x,1/2-z,1/2+y
45 -y,z,-x
46 1/2-y,1/2+z,1/2-x
47 -y,-z,x
48 1/2-y,1/2-z,1/2+x
_cell_length_a 6.7299(1)
_cell_length_b 6.7299(1)
_cell_length_c 6.7299(1)
_cell_angle_alpha 90
_cell_angle_beta 90
_cell_angle_gamma 90
_cell_formula_units_Z 2
loop_
_atom_type_symbol
_atom_type_radius_bond
C 0.68
H 0.23
N 0.68
loop_
_atom_site_label
_atom_site_type_symbol
_atom_site_fract_x
_atom_site_fract_y
_atom_site_fract_z
N1 N 0.12777(13) 0.12777(13) 0.12777(13)
C1 C 0.2493(2) 0.00000 0.00000
H1 H 0.345(3) 0.099(2) -0.099(2)
N1B N 0.12777(13) -0.12777(13) -0.12777(13)
C1B C 0.0000(2) -0.24930 0.00000
H1B H 0.099(3) -0.345(2) 0.099(2)
H1C H 0.345(3) -0.099(2) 0.099(2)
C1D C 0.0000(2) 0.24930 0.00000
H1D H -0.099(3) 0.345(2) 0.099(2)
N1H N -0.12777(13) -0.12777(13) 0.12777(13)
C1H C -0.2493(2) 0.00000 0.00000
H1H H -0.345(3) -0.099(2) -0.099(2)
H1I H 0.099(3) 0.345(2) -0.099(2)
N1J N -0.12777(13) 0.12777(13) -0.12777(13)
C1J C 0.0000(2) 0.00000 -0.24930
H1J H 0.099(3) 0.099(2) -0.345(2)
H1O H -0.345(3) 0.099(2) 0.099(2)
H1P H -0.099(3) -0.345(2) -0.099(2)
C1U C 0.0000(2) 0.00000 0.24930
H1U H 0.099(3) -0.099(2) 0.345(2)
H1Z H -0.099(3) -0.099(2) -0.345(2)
H1DA H -0.099(3) 0.099(2) 0.345(2)
#END

data_CSD_CIF_QAMCAM44
_audit_creation_date 2020-12-18
_audit_creation_method CSD-ConQuest-V1
_database_code_CSD QAMCAM44
_database_code_depnum_ccdc_archive 'CCDC 2005111'
_chemical_formula_sum 'C6 H12 N4'
_chemical_formula_moiety
;
C6 H12 N4
;
_journal_coden_Cambridge 1220
_journal_volume 27
_journal_year 2020
_journal_page_first 1094
_journal_name_full 'Chem.-Eur.J. '
loop_
_publ_author_name
"P.A.Gunka"
"A.Olejniczak"
"S.Fanetti"
"R.Bini"
"I.E.Collings"
"V.Svitlyk"
"K.F.Dziubek"
_chemical_name_systematic
;
1,3,5,7-tetraazatricyclo[3.3.1.1^3,7^]decane
;
_chemical_name_common
;
hexamethylenetetramine; urotropine
;
_cell_volume    299.768
_exptl_crystal_colour 'colorless'
_exptl_crystal_density_diffrn 1.553
_exptl_crystal_description 'block'
_diffrn_ambient_temperature 293
_diffrn_ambient_pressure 2400000.0
_diffrn_radiation_probe x-ray
_diffrn_source synchrotron
_refine_special_details
;
Hirshfeld Atom Refinement

;
#These two values have been output from a single CSD field.
_refine_ls_R_factor_gt 0.0286
_refine_ls_wR_factor_gt 0.0286
_symmetry_cell_setting cubic
_symmetry_space_group_name_H-M 'I -4 3 m'
_symmetry_Int_Tables_number 217
loop_
_symmetry_equiv_pos_site_id
_symmetry_equiv_pos_as_xyz
1 x,y,z
2 1/2+x,1/2+y,1/2+z
3 y,-x,-z
4 x,-y,-z
5 z,x,y
6 1/2+y,1/2-x,1/2-z
7 1/2+x,1/2-y,1/2-z
8 1/2+z,1/2+x,1/2+y
9 -x,-y,z
10 y,x,z
11 -z,y,-x
12 1/2-x,1/2-y,1/2+z
13 1/2+y,1/2+x,1/2+z
14 1/2-z,1/2+y,1/2-x
15 -y,x,-z
16 -x,y,-z
17 z,-x,-y
18 1/2-y,1/2+x,1/2-z
19 1/2-x,1/2+y,1/2-z
20 1/2+z,1/2-x,1/2-y
21 -y,-x,z
22 -z,-y,x
23 1/2-y,1/2-x,1/2+z
24 1/2-z,1/2-y,1/2+x
25 -z,x,-y
26 1/2-z,1/2+x,1/2-y
27 z,-y,-x
28 1/2+z,1/2-y,1/2-x
29 -z,-x,y
30 1/2-z,1/2-x,1/2+y
31 z,y,x
32 1/2+z,1/2+y,1/2+x
33 x,-z,-y
34 y,z,x
35 1/2+x,1/2-z,1/2-y
36 1/2+y,1/2+z,1/2+x
37 x,z,y
38 1/2+x,1/2+z,1/2+y
39 -x,z,-y
40 y,-z,-x
41 1/2-x,1/2+z,1/2-y
42 1/2+y,1/2-z,1/2-x
43 -x,-z,y
44 1/2-x,1/2-z,1/2+y
45 -y,z,-x
46 1/2-y,1/2+z,1/2-x
47 -y,-z,x
48 1/2-y,1/2-z,1/2+x
_cell_length_a 6.6926(2)
_cell_length_b 6.6926(2)
_cell_length_c 6.6926(2)
_cell_angle_alpha 90
_cell_angle_beta 90
_cell_angle_gamma 90
_cell_formula_units_Z 2
loop_
_atom_type_symbol
_atom_type_radius_bond
C 0.68
H 0.23
N 0.68
loop_
_atom_site_label
_atom_site_type_symbol
_atom_site_fract_x
_atom_site_fract_y
_atom_site_fract_z
N1 N 0.12839(13) 0.12839(13) 0.12839(13)
C1 C 0.2505(2) 0.00000 0.00000
H1 H 0.348(3) 0.098(2) -0.098(2)
N1B N 0.12839(13) -0.12839(13) -0.12839(13)
C1B C 0.0000(2) -0.25050 0.00000
H1B H 0.098(3) -0.348(2) 0.098(2)
H1C H 0.348(3) -0.098(2) 0.098(2)
C1D C 0.0000(2) 0.25050 0.00000
H1D H -0.098(3) 0.348(2) 0.098(2)
N1H N -0.12839(13) -0.12839(13) 0.12839(13)
C1H C -0.2505(2) 0.00000 0.00000
H1H H -0.348(3) -0.098(2) -0.098(2)
H1I H 0.098(3) 0.348(2) -0.098(2)
N1J N -0.12839(13) 0.12839(13) -0.12839(13)
C1J C 0.0000(2) 0.00000 -0.25050
H1J H 0.098(3) 0.098(2) -0.348(2)
H1O H -0.348(3) 0.098(2) 0.098(2)
H1P H -0.098(3) -0.348(2) -0.098(2)
C1U C 0.0000(2) 0.00000 0.25050
H1U H 0.098(3) -0.098(2) 0.348(2)
H1Z H -0.098(3) -0.098(2) -0.348(2)
H1DA H -0.098(3) 0.098(2) 0.348(2)
#END

data_CSD_CIF_QAMCAM45
_audit_creation_date 2020-12-18
_audit_creation_method CSD-ConQuest-V1
_database_code_CSD QAMCAM45
_database_code_depnum_ccdc_archive 'CCDC 2005112'
_chemical_formula_sum 'C6 H12 N4'
_chemical_formula_moiety
;
C6 H12 N4
;
_journal_coden_Cambridge 1220
_journal_volume 27
_journal_year 2020
_journal_page_first 1094
_journal_name_full 'Chem.-Eur.J. '
loop_
_publ_author_name
"P.A.Gunka"
"A.Olejniczak"
"S.Fanetti"
"R.Bini"
"I.E.Collings"
"V.Svitlyk"
"K.F.Dziubek"
_chemical_name_systematic
;
1,3,5,7-tetraazatricyclo[3.3.1.1^3,7^]decane
;
_chemical_name_common
;
hexamethylenetetramine; urotropine
;
_cell_volume    297.516
_exptl_crystal_colour 'colorless'
_exptl_crystal_density_diffrn 1.565
_exptl_crystal_description 'block'
_diffrn_ambient_temperature 293
_diffrn_ambient_pressure 2630000.0
_diffrn_radiation_probe x-ray
_diffrn_source synchrotron
_refine_special_details
;
Hirshfeld Atom Refinement

;
#These two values have been output from a single CSD field.
_refine_ls_R_factor_gt 0.032
_refine_ls_wR_factor_gt 0.032
_symmetry_cell_setting cubic
_symmetry_space_group_name_H-M 'I -4 3 m'
_symmetry_Int_Tables_number 217
loop_
_symmetry_equiv_pos_site_id
_symmetry_equiv_pos_as_xyz
1 x,y,z
2 1/2+x,1/2+y,1/2+z
3 y,-x,-z
4 x,-y,-z
5 z,x,y
6 1/2+y,1/2-x,1/2-z
7 1/2+x,1/2-y,1/2-z
8 1/2+z,1/2+x,1/2+y
9 -x,-y,z
10 y,x,z
11 -z,y,-x
12 1/2-x,1/2-y,1/2+z
13 1/2+y,1/2+x,1/2+z
14 1/2-z,1/2+y,1/2-x
15 -y,x,-z
16 -x,y,-z
17 z,-x,-y
18 1/2-y,1/2+x,1/2-z
19 1/2-x,1/2+y,1/2-z
20 1/2+z,1/2-x,1/2-y
21 -y,-x,z
22 -z,-y,x
23 1/2-y,1/2-x,1/2+z
24 1/2-z,1/2-y,1/2+x
25 -z,x,-y
26 1/2-z,1/2+x,1/2-y
27 z,-y,-x
28 1/2+z,1/2-y,1/2-x
29 -z,-x,y
30 1/2-z,1/2-x,1/2+y
31 z,y,x
32 1/2+z,1/2+y,1/2+x
33 x,-z,-y
34 y,z,x
35 1/2+x,1/2-z,1/2-y
36 1/2+y,1/2+z,1/2+x
37 x,z,y
38 1/2+x,1/2+z,1/2+y
39 -x,z,-y
40 y,-z,-x
41 1/2-x,1/2+z,1/2-y
42 1/2+y,1/2-z,1/2-x
43 -x,-z,y
44 1/2-x,1/2-z,1/2+y
45 -y,z,-x
46 1/2-y,1/2+z,1/2-x
47 -y,-z,x
48 1/2-y,1/2-z,1/2+x
_cell_length_a 6.6758(1)
_cell_length_b 6.6758(1)
_cell_length_c 6.6758(1)
_cell_angle_alpha 90
_cell_angle_beta 90
_cell_angle_gamma 90
_cell_formula_units_Z 2
loop_
_atom_type_symbol
_atom_type_radius_bond
C 0.68
H 0.23
N 0.68
loop_
_atom_site_label
_atom_site_type_symbol
_atom_site_fract_x
_atom_site_fract_y
_atom_site_fract_z
N1 N 0.12881(13) 0.12881(13) 0.12881(13)
C1 C 0.2511(2) 0.00000 0.00000
H1 H 0.345(3) 0.097(3) -0.097(3)
N1B N 0.12881(13) -0.12881(13) -0.12881(13)
C1B C 0.0000(2) -0.25110 0.00000
H1B H 0.097(3) -0.345(3) 0.097(3)
H1C H 0.345(3) -0.097(3) 0.097(3)
C1D C 0.0000(2) 0.25110 0.00000
H1D H -0.097(3) 0.345(3) 0.097(3)
N1H N -0.12881(13) -0.12881(13) 0.12881(13)
C1H C -0.2511(2) 0.00000 0.00000
H1H H -0.345(3) -0.097(3) -0.097(3)
H1I H 0.097(3) 0.345(3) -0.097(3)
N1J N -0.12881(13) 0.12881(13) -0.12881(13)
C1J C 0.0000(2) 0.00000 -0.25110
H1J H 0.097(3) 0.097(3) -0.345(3)
H1O H -0.345(3) 0.097(3) 0.097(3)
H1P H -0.097(3) -0.345(3) -0.097(3)
C1U C 0.0000(2) 0.00000 0.25110
H1U H 0.097(3) -0.097(3) 0.345(3)
H1Z H -0.097(3) -0.097(3) -0.345(3)
H1DA H -0.097(3) 0.097(3) 0.345(3)
#END

data_CSD_CIF_QAMCAM46
_audit_creation_date 2020-12-18
_audit_creation_method CSD-ConQuest-V1
_database_code_CSD QAMCAM46
_database_code_depnum_ccdc_archive 'CCDC 2005113'
_chemical_formula_sum 'C6 H12 N4'
_chemical_formula_moiety
;
C6 H12 N4
;
_journal_coden_Cambridge 1220
_journal_volume 27
_journal_year 2020
_journal_page_first 1094
_journal_name_full 'Chem.-Eur.J. '
loop_
_publ_author_name
"P.A.Gunka"
"A.Olejniczak"
"S.Fanetti"
"R.Bini"
"I.E.Collings"
"V.Svitlyk"
"K.F.Dziubek"
_chemical_name_systematic
;
1,3,5,7-tetraazatricyclo[3.3.1.1^3,7^]decane
;
_chemical_name_common
;
hexamethylenetetramine; urotropine
;
_cell_volume    296.314
_exptl_crystal_colour 'colorless'
_exptl_crystal_density_diffrn 1.571
_exptl_crystal_description 'block'
_diffrn_ambient_temperature 293
_diffrn_ambient_pressure 2820000.0
_diffrn_radiation_probe x-ray
_diffrn_source synchrotron
_refine_special_details
;
Hirshfeld Atom Refinement

;
#These two values have been output from a single CSD field.
_refine_ls_R_factor_gt 0.0261
_refine_ls_wR_factor_gt 0.0261
_symmetry_cell_setting cubic
_symmetry_space_group_name_H-M 'I -4 3 m'
_symmetry_Int_Tables_number 217
loop_
_symmetry_equiv_pos_site_id
_symmetry_equiv_pos_as_xyz
1 x,y,z
2 1/2+x,1/2+y,1/2+z
3 y,-x,-z
4 x,-y,-z
5 z,x,y
6 1/2+y,1/2-x,1/2-z
7 1/2+x,1/2-y,1/2-z
8 1/2+z,1/2+x,1/2+y
9 -x,-y,z
10 y,x,z
11 -z,y,-x
12 1/2-x,1/2-y,1/2+z
13 1/2+y,1/2+x,1/2+z
14 1/2-z,1/2+y,1/2-x
15 -y,x,-z
16 -x,y,-z
17 z,-x,-y
18 1/2-y,1/2+x,1/2-z
19 1/2-x,1/2+y,1/2-z
20 1/2+z,1/2-x,1/2-y
21 -y,-x,z
22 -z,-y,x
23 1/2-y,1/2-x,1/2+z
24 1/2-z,1/2-y,1/2+x
25 -z,x,-y
26 1/2-z,1/2+x,1/2-y
27 z,-y,-x
28 1/2+z,1/2-y,1/2-x
29 -z,-x,y
30 1/2-z,1/2-x,1/2+y
31 z,y,x
32 1/2+z,1/2+y,1/2+x
33 x,-z,-y
34 y,z,x
35 1/2+x,1/2-z,1/2-y
36 1/2+y,1/2+z,1/2+x
37 x,z,y
38 1/2+x,1/2+z,1/2+y
39 -x,z,-y
40 y,-z,-x
41 1/2-x,1/2+z,1/2-y
42 1/2+y,1/2-z,1/2-x
43 -x,-z,y
44 1/2-x,1/2-z,1/2+y
45 -y,z,-x
46 1/2-y,1/2+z,1/2-x
47 -y,-z,x
48 1/2-y,1/2-z,1/2+x
_cell_length_a 6.6668(1)
_cell_length_b 6.6668(1)
_cell_length_c 6.6668(1)
_cell_angle_alpha 90
_cell_angle_beta 90
_cell_angle_gamma 90
_cell_formula_units_Z 2
loop_
_atom_type_symbol
_atom_type_radius_bond
C 0.68
H 0.23
N 0.68
loop_
_atom_site_label
_atom_site_type_symbol
_atom_site_fract_x
_atom_site_fract_y
_atom_site_fract_z
N1 N 0.12899(11) 0.12899(11) 0.12899(11)
C1 C 0.2516(2) 0.00000 0.00000
H1 H 0.342(3) 0.094(3) -0.094(3)
N1B N 0.12899(11) -0.12899(11) -0.12899(11)
C1B C 0.0000(2) -0.25160 0.00000
H1B H 0.094(3) -0.342(3) 0.094(3)
H1C H 0.342(3) -0.094(3) 0.094(3)
C1D C 0.0000(2) 0.25160 0.00000
H1D H -0.094(3) 0.342(3) 0.094(3)
N1H N -0.12899(11) -0.12899(11) 0.12899(11)
C1H C -0.2516(2) 0.00000 0.00000
H1H H -0.342(3) -0.094(3) -0.094(3)
H1I H 0.094(3) 0.342(3) -0.094(3)
N1J N -0.12899(11) 0.12899(11) -0.12899(11)
C1J C 0.0000(2) 0.00000 -0.25160
H1J H 0.094(3) 0.094(3) -0.342(3)
H1O H -0.342(3) 0.094(3) 0.094(3)
H1P H -0.094(3) -0.342(3) -0.094(3)
C1U C 0.0000(2) 0.00000 0.25160
H1U H 0.094(3) -0.094(3) 0.342(3)
H1Z H -0.094(3) -0.094(3) -0.342(3)
H1DA H -0.094(3) 0.094(3) 0.342(3)
#END

data_CSD_CIF_QAMCAM47
_audit_creation_date 2020-12-18
_audit_creation_method CSD-ConQuest-V1
_database_code_CSD QAMCAM47
_database_code_depnum_ccdc_archive 'CCDC 2005114'
_chemical_formula_sum 'C6 H12 N4'
_chemical_formula_moiety
;
C6 H12 N4
;
_journal_coden_Cambridge 1220
_journal_volume 27
_journal_year 2020
_journal_page_first 1094
_journal_name_full 'Chem.-Eur.J. '
loop_
_publ_author_name
"P.A.Gunka"
"A.Olejniczak"
"S.Fanetti"
"R.Bini"
"I.E.Collings"
"V.Svitlyk"
"K.F.Dziubek"
_chemical_name_systematic
;
1,3,5,7-tetraazatricyclo[3.3.1.1^3,7^]decane
;
_chemical_name_common
;
hexamethylenetetramine; urotropine
;
_cell_volume    294.173
_exptl_crystal_colour 'colorless'
_exptl_crystal_density_diffrn 1.583
_exptl_crystal_description 'block'
_diffrn_ambient_temperature 293
_diffrn_ambient_pressure 3010000.0
_diffrn_radiation_probe x-ray
_diffrn_source synchrotron
_refine_special_details
;
Hirshfeld Atom Refinement

;
#These two values have been output from a single CSD field.
_refine_ls_R_factor_gt 0.018
_refine_ls_wR_factor_gt 0.018
_symmetry_cell_setting cubic
_symmetry_space_group_name_H-M 'I -4 3 m'
_symmetry_Int_Tables_number 217
loop_
_symmetry_equiv_pos_site_id
_symmetry_equiv_pos_as_xyz
1 x,y,z
2 1/2+x,1/2+y,1/2+z
3 y,-x,-z
4 x,-y,-z
5 z,x,y
6 1/2+y,1/2-x,1/2-z
7 1/2+x,1/2-y,1/2-z
8 1/2+z,1/2+x,1/2+y
9 -x,-y,z
10 y,x,z
11 -z,y,-x
12 1/2-x,1/2-y,1/2+z
13 1/2+y,1/2+x,1/2+z
14 1/2-z,1/2+y,1/2-x
15 -y,x,-z
16 -x,y,-z
17 z,-x,-y
18 1/2-y,1/2+x,1/2-z
19 1/2-x,1/2+y,1/2-z
20 1/2+z,1/2-x,1/2-y
21 -y,-x,z
22 -z,-y,x
23 1/2-y,1/2-x,1/2+z
24 1/2-z,1/2-y,1/2+x
25 -z,x,-y
26 1/2-z,1/2+x,1/2-y
27 z,-y,-x
28 1/2+z,1/2-y,1/2-x
29 -z,-x,y
30 1/2-z,1/2-x,1/2+y
31 z,y,x
32 1/2+z,1/2+y,1/2+x
33 x,-z,-y
34 y,z,x
35 1/2+x,1/2-z,1/2-y
36 1/2+y,1/2+z,1/2+x
37 x,z,y
38 1/2+x,1/2+z,1/2+y
39 -x,z,-y
40 y,-z,-x
41 1/2-x,1/2+z,1/2-y
42 1/2+y,1/2-z,1/2-x
43 -x,-z,y
44 1/2-x,1/2-z,1/2+y
45 -y,z,-x
46 1/2-y,1/2+z,1/2-x
47 -y,-z,x
48 1/2-y,1/2-z,1/2+x
_cell_length_a 6.6507(2)
_cell_length_b 6.6507(2)
_cell_length_c 6.6507(2)
_cell_angle_alpha 90
_cell_angle_beta 90
_cell_angle_gamma 90
_cell_formula_units_Z 2
loop_
_atom_type_symbol
_atom_type_radius_bond
C 0.68
H 0.23
N 0.68
loop_
_atom_site_label
_atom_site_type_symbol
_atom_site_fract_x
_atom_site_fract_y
_atom_site_fract_z
N1 N 0.12934(11) 0.12934(11) 0.12934(11)
C1 C 0.25210(18) 0.00000 0.00000
H1 H 0.342(2) 0.099(2) -0.099(2)
N1B N 0.12934(11) -0.12934(11) -0.12934(11)
C1B C 0.00000(18) -0.25210 0.00000
H1B H 0.099(2) -0.342(2) 0.099(2)
H1C H 0.342(2) -0.099(2) 0.099(2)
C1D C 0.00000(18) 0.25210 0.00000
H1D H -0.099(2) 0.342(2) 0.099(2)
N1H N -0.12934(11) -0.12934(11) 0.12934(11)
C1H C -0.25210(18) 0.00000 0.00000
H1H H -0.342(2) -0.099(2) -0.099(2)
H1I H 0.099(2) 0.342(2) -0.099(2)
N1J N -0.12934(11) 0.12934(11) -0.12934(11)
C1J C 0.00000(18) 0.00000 -0.25210
H1J H 0.099(2) 0.099(2) -0.342(2)
H1O H -0.342(2) 0.099(2) 0.099(2)
H1P H -0.099(2) -0.342(2) -0.099(2)
C1U C 0.00000(18) 0.00000 0.25210
H1U H 0.099(2) -0.099(2) 0.342(2)
H1Z H -0.099(2) -0.099(2) -0.342(2)
H1DA H -0.099(2) 0.099(2) 0.342(2)
#END

data_CSD_CIF_QAMCAM48
_audit_creation_date 2020-12-18
_audit_creation_method CSD-ConQuest-V1
_database_code_CSD QAMCAM48
_database_code_depnum_ccdc_archive 'CCDC 2005115'
_chemical_formula_sum 'C6 H12 N4'
_chemical_formula_moiety
;
C6 H12 N4
;
_journal_coden_Cambridge 1220
_journal_volume 27
_journal_year 2020
_journal_page_first 1094
_journal_name_full 'Chem.-Eur.J. '
loop_
_publ_author_name
"P.A.Gunka"
"A.Olejniczak"
"S.Fanetti"
"R.Bini"
"I.E.Collings"
"V.Svitlyk"
"K.F.Dziubek"
_chemical_name_systematic
;
1,3,5,7-tetraazatricyclo[3.3.1.1^3,7^]decane
;
_chemical_name_common
;
hexamethylenetetramine; urotropine
;
_cell_volume    292.119
_exptl_crystal_colour 'colorless'
_exptl_crystal_density_diffrn 1.594
_exptl_crystal_description 'block'
_diffrn_ambient_temperature 293
_diffrn_ambient_pressure 3260000.0
_diffrn_radiation_probe x-ray
_diffrn_source synchrotron
_refine_special_details
;
Hirshfeld Atom Refinement

;
#These two values have been output from a single CSD field.
_refine_ls_R_factor_gt 0.022
_refine_ls_wR_factor_gt 0.022
_symmetry_cell_setting cubic
_symmetry_space_group_name_H-M 'I -4 3 m'
_symmetry_Int_Tables_number 217
loop_
_symmetry_equiv_pos_site_id
_symmetry_equiv_pos_as_xyz
1 x,y,z
2 1/2+x,1/2+y,1/2+z
3 y,-x,-z
4 x,-y,-z
5 z,x,y
6 1/2+y,1/2-x,1/2-z
7 1/2+x,1/2-y,1/2-z
8 1/2+z,1/2+x,1/2+y
9 -x,-y,z
10 y,x,z
11 -z,y,-x
12 1/2-x,1/2-y,1/2+z
13 1/2+y,1/2+x,1/2+z
14 1/2-z,1/2+y,1/2-x
15 -y,x,-z
16 -x,y,-z
17 z,-x,-y
18 1/2-y,1/2+x,1/2-z
19 1/2-x,1/2+y,1/2-z
20 1/2+z,1/2-x,1/2-y
21 -y,-x,z
22 -z,-y,x
23 1/2-y,1/2-x,1/2+z
24 1/2-z,1/2-y,1/2+x
25 -z,x,-y
26 1/2-z,1/2+x,1/2-y
27 z,-y,-x
28 1/2+z,1/2-y,1/2-x
29 -z,-x,y
30 1/2-z,1/2-x,1/2+y
31 z,y,x
32 1/2+z,1/2+y,1/2+x
33 x,-z,-y
34 y,z,x
35 1/2+x,1/2-z,1/2-y
36 1/2+y,1/2+z,1/2+x
37 x,z,y
38 1/2+x,1/2+z,1/2+y
39 -x,z,-y
40 y,-z,-x
41 1/2-x,1/2+z,1/2-y
42 1/2+y,1/2-z,1/2-x
43 -x,-z,y
44 1/2-x,1/2-z,1/2+y
45 -y,z,-x
46 1/2-y,1/2+z,1/2-x
47 -y,-z,x
48 1/2-y,1/2-z,1/2+x
_cell_length_a 6.63519(12)
_cell_length_b 6.63519(12)
_cell_length_c 6.63519(12)
_cell_angle_alpha 90
_cell_angle_beta 90
_cell_angle_gamma 90
_cell_formula_units_Z 2
loop_
_atom_type_symbol
_atom_type_radius_bond
C 0.68
H 0.23
N 0.68
loop_
_atom_site_label
_atom_site_type_symbol
_atom_site_fract_x
_atom_site_fract_y
_atom_site_fract_z
N1 N 0.12971(11) 0.12971(11) 0.12971(11)
C1 C 0.2528(2) 0.00000 0.00000
H1 H 0.347(3) 0.100(3) -0.100(3)
N1B N 0.12971(11) -0.12971(11) -0.12971(11)
C1B C 0.0000(2) -0.25280 0.00000
H1B H 0.100(3) -0.347(3) 0.100(3)
H1C H 0.347(3) -0.100(3) 0.100(3)
C1D C 0.0000(2) 0.25280 0.00000
H1D H -0.100(3) 0.347(3) 0.100(3)
N1H N -0.12971(11) -0.12971(11) 0.12971(11)
C1H C -0.2528(2) 0.00000 0.00000
H1H H -0.347(3) -0.100(3) -0.100(3)
H1I H 0.100(3) 0.347(3) -0.100(3)
N1J N -0.12971(11) 0.12971(11) -0.12971(11)
C1J C 0.0000(2) 0.00000 -0.25280
H1J H 0.100(3) 0.100(3) -0.347(3)
H1O H -0.347(3) 0.100(3) 0.100(3)
H1P H -0.100(3) -0.347(3) -0.100(3)
C1U C 0.0000(2) 0.00000 0.25280
H1U H 0.100(3) -0.100(3) 0.347(3)
H1Z H -0.100(3) -0.100(3) -0.347(3)
H1DA H -0.100(3) 0.100(3) 0.347(3)
#END

data_CSD_CIF_QAMCAM49
_audit_creation_date 2020-12-18
_audit_creation_method CSD-ConQuest-V1
_database_code_CSD QAMCAM49
_database_code_depnum_ccdc_archive 'CCDC 2005116'
_chemical_formula_sum 'C6 H12 N4'
_chemical_formula_moiety
;
C6 H12 N4
;
_journal_coden_Cambridge 1220
_journal_volume 27
_journal_year 2020
_journal_page_first 1094
_journal_name_full 'Chem.-Eur.J. '
loop_
_publ_author_name
"P.A.Gunka"
"A.Olejniczak"
"S.Fanetti"
"R.Bini"
"I.E.Collings"
"V.Svitlyk"
"K.F.Dziubek"
_chemical_name_systematic
;
1,3,5,7-tetraazatricyclo[3.3.1.1^3,7^]decane
;
_chemical_name_common
;
hexamethylenetetramine; urotropine
;
_cell_volume    290.446
_exptl_crystal_colour 'colorless'
_exptl_crystal_density_diffrn 1.603
_exptl_crystal_description 'block'
_diffrn_ambient_temperature 293
_diffrn_ambient_pressure 3460000.0
_diffrn_radiation_probe x-ray
_diffrn_source synchrotron
_refine_special_details
;
Hirshfeld Atom Refinement

;
#These two values have been output from a single CSD field.
_refine_ls_R_factor_gt 0.0236
_refine_ls_wR_factor_gt 0.0236
_symmetry_cell_setting cubic
_symmetry_space_group_name_H-M 'I -4 3 m'
_symmetry_Int_Tables_number 217
loop_
_symmetry_equiv_pos_site_id
_symmetry_equiv_pos_as_xyz
1 x,y,z
2 1/2+x,1/2+y,1/2+z
3 y,-x,-z
4 x,-y,-z
5 z,x,y
6 1/2+y,1/2-x,1/2-z
7 1/2+x,1/2-y,1/2-z
8 1/2+z,1/2+x,1/2+y
9 -x,-y,z
10 y,x,z
11 -z,y,-x
12 1/2-x,1/2-y,1/2+z
13 1/2+y,1/2+x,1/2+z
14 1/2-z,1/2+y,1/2-x
15 -y,x,-z
16 -x,y,-z
17 z,-x,-y
18 1/2-y,1/2+x,1/2-z
19 1/2-x,1/2+y,1/2-z
20 1/2+z,1/2-x,1/2-y
21 -y,-x,z
22 -z,-y,x
23 1/2-y,1/2-x,1/2+z
24 1/2-z,1/2-y,1/2+x
25 -z,x,-y
26 1/2-z,1/2+x,1/2-y
27 z,-y,-x
28 1/2+z,1/2-y,1/2-x
29 -z,-x,y
30 1/2-z,1/2-x,1/2+y
31 z,y,x
32 1/2+z,1/2+y,1/2+x
33 x,-z,-y
34 y,z,x
35 1/2+x,1/2-z,1/2-y
36 1/2+y,1/2+z,1/2+x
37 x,z,y
38 1/2+x,1/2+z,1/2+y
39 -x,z,-y
40 y,-z,-x
41 1/2-x,1/2+z,1/2-y
42 1/2+y,1/2-z,1/2-x
43 -x,-z,y
44 1/2-x,1/2-z,1/2+y
45 -y,z,-x
46 1/2-y,1/2+z,1/2-x
47 -y,-z,x
48 1/2-y,1/2-z,1/2+x
_cell_length_a 6.6225(1)
_cell_length_b 6.6225(1)
_cell_length_c 6.6225(1)
_cell_angle_alpha 90
_cell_angle_beta 90
_cell_angle_gamma 90
_cell_formula_units_Z 2
loop_
_atom_type_symbol
_atom_type_radius_bond
C 0.68
H 0.23
N 0.68
loop_
_atom_site_label
_atom_site_type_symbol
_atom_site_fract_x
_atom_site_fract_y
_atom_site_fract_z
N1 N 0.12999(10) 0.12999(10) 0.12999(10)
C1 C 0.2531(2) 0.00000 0.00000
H1 H 0.347(2) 0.098(2) -0.098(2)
N1B N 0.12999(10) -0.12999(10) -0.12999(10)
C1B C 0.0000(2) -0.25310 0.00000
H1B H 0.098(2) -0.347(2) 0.098(2)
H1C H 0.347(2) -0.098(2) 0.098(2)
C1D C 0.0000(2) 0.25310 0.00000
H1D H -0.098(2) 0.347(2) 0.098(2)
N1H N -0.12999(10) -0.12999(10) 0.12999(10)
C1H C -0.2531(2) 0.00000 0.00000
H1H H -0.347(2) -0.098(2) -0.098(2)
H1I H 0.098(2) 0.347(2) -0.098(2)
N1J N -0.12999(10) 0.12999(10) -0.12999(10)
C1J C 0.0000(2) 0.00000 -0.25310
H1J H 0.098(2) 0.098(2) -0.347(2)
H1O H -0.347(2) 0.098(2) 0.098(2)
H1P H -0.098(2) -0.347(2) -0.098(2)
C1U C 0.0000(2) 0.00000 0.25310
H1U H 0.098(2) -0.098(2) 0.347(2)
H1Z H -0.098(2) -0.098(2) -0.347(2)
H1DA H -0.098(2) 0.098(2) 0.347(2)
#END

data_CSD_CIF_QAMCAM50
_audit_creation_date 2020-12-18
_audit_creation_method CSD-ConQuest-V1
_database_code_CSD QAMCAM50
_database_code_depnum_ccdc_archive 'CCDC 2005117'
_chemical_formula_sum 'C6 H12 N4'
_chemical_formula_moiety
;
C6 H12 N4
;
_journal_coden_Cambridge 1220
_journal_volume 27
_journal_year 2020
_journal_page_first 1094
_journal_name_full 'Chem.-Eur.J. '
loop_
_publ_author_name
"P.A.Gunka"
"A.Olejniczak"
"S.Fanetti"
"R.Bini"
"I.E.Collings"
"V.Svitlyk"
"K.F.Dziubek"
_chemical_name_systematic
;
1,3,5,7-tetraazatricyclo[3.3.1.1^3,7^]decane
;
_chemical_name_common
;
hexamethylenetetramine; urotropine
;
_cell_volume    288.608
_exptl_crystal_colour 'colorless'
_exptl_crystal_density_diffrn 1.613
_exptl_crystal_description 'block'
_diffrn_ambient_temperature 293
_diffrn_ambient_pressure 3680000.0
_diffrn_radiation_probe x-ray
_diffrn_source synchrotron
_refine_special_details
;
Hirshfeld Atom Refinement

;
#These two values have been output from a single CSD field.
_refine_ls_R_factor_gt 0.0209
_refine_ls_wR_factor_gt 0.0209
_symmetry_cell_setting cubic
_symmetry_space_group_name_H-M 'I -4 3 m'
_symmetry_Int_Tables_number 217
loop_
_symmetry_equiv_pos_site_id
_symmetry_equiv_pos_as_xyz
1 x,y,z
2 1/2+x,1/2+y,1/2+z
3 y,-x,-z
4 x,-y,-z
5 z,x,y
6 1/2+y,1/2-x,1/2-z
7 1/2+x,1/2-y,1/2-z
8 1/2+z,1/2+x,1/2+y
9 -x,-y,z
10 y,x,z
11 -z,y,-x
12 1/2-x,1/2-y,1/2+z
13 1/2+y,1/2+x,1/2+z
14 1/2-z,1/2+y,1/2-x
15 -y,x,-z
16 -x,y,-z
17 z,-x,-y
18 1/2-y,1/2+x,1/2-z
19 1/2-x,1/2+y,1/2-z
20 1/2+z,1/2-x,1/2-y
21 -y,-x,z
22 -z,-y,x
23 1/2-y,1/2-x,1/2+z
24 1/2-z,1/2-y,1/2+x
25 -z,x,-y
26 1/2-z,1/2+x,1/2-y
27 z,-y,-x
28 1/2+z,1/2-y,1/2-x
29 -z,-x,y
30 1/2-z,1/2-x,1/2+y
31 z,y,x
32 1/2+z,1/2+y,1/2+x
33 x,-z,-y
34 y,z,x
35 1/2+x,1/2-z,1/2-y
36 1/2+y,1/2+z,1/2+x
37 x,z,y
38 1/2+x,1/2+z,1/2+y
39 -x,z,-y
40 y,-z,-x
41 1/2-x,1/2+z,1/2-y
42 1/2+y,1/2-z,1/2-x
43 -x,-z,y
44 1/2-x,1/2-z,1/2+y
45 -y,z,-x
46 1/2-y,1/2+z,1/2-x
47 -y,-z,x
48 1/2-y,1/2-z,1/2+x
_cell_length_a 6.6085(1)
_cell_length_b 6.6085(1)
_cell_length_c 6.6085(1)
_cell_angle_alpha 90
_cell_angle_beta 90
_cell_angle_gamma 90
_cell_formula_units_Z 2
loop_
_atom_type_symbol
_atom_type_radius_bond
C 0.68
H 0.23
N 0.68
loop_
_atom_site_label
_atom_site_type_symbol
_atom_site_fract_x
_atom_site_fract_y
_atom_site_fract_z
N1 N 0.13020(9) 0.13020(9) 0.13020(9)
C1 C 0.25360(16) 0.00000 0.00000
H1 H 0.346(2) 0.098(2) -0.098(2)
N1B N 0.13020(9) -0.13020(9) -0.13020(9)
C1B C 0.00000(16) -0.25360 0.00000
H1B H 0.098(2) -0.346(2) 0.098(2)
H1C H 0.346(2) -0.098(2) 0.098(2)
C1D C 0.00000(16) 0.25360 0.00000
H1D H -0.098(2) 0.346(2) 0.098(2)
N1H N -0.13020(9) -0.13020(9) 0.13020(9)
C1H C -0.25360(16) 0.00000 0.00000
H1H H -0.346(2) -0.098(2) -0.098(2)
H1I H 0.098(2) 0.346(2) -0.098(2)
N1J N -0.13020(9) 0.13020(9) -0.13020(9)
C1J C 0.00000(16) 0.00000 -0.25360
H1J H 0.098(2) 0.098(2) -0.346(2)
H1O H -0.346(2) 0.098(2) 0.098(2)
H1P H -0.098(2) -0.346(2) -0.098(2)
C1U C 0.00000(16) 0.00000 0.25360
H1U H 0.098(2) -0.098(2) 0.346(2)
H1Z H -0.098(2) -0.098(2) -0.346(2)
H1DA H -0.098(2) 0.098(2) 0.346(2)
#END

data_CSD_CIF_QAMCAM51
_audit_creation_date 2020-12-18
_audit_creation_method CSD-ConQuest-V1
_database_code_CSD QAMCAM51
_database_code_depnum_ccdc_archive 'CCDC 2005118'
_chemical_formula_sum 'C6 H12 N4'
_chemical_formula_moiety
;
C6 H12 N4
;
_journal_coden_Cambridge 1220
_journal_volume 27
_journal_year 2020
_journal_page_first 1094
_journal_name_full 'Chem.-Eur.J. '
loop_
_publ_author_name
"P.A.Gunka"
"A.Olejniczak"
"S.Fanetti"
"R.Bini"
"I.E.Collings"
"V.Svitlyk"
"K.F.Dziubek"
_chemical_name_systematic
;
1,3,5,7-tetraazatricyclo[3.3.1.1^3,7^]decane
;
_chemical_name_common
;
hexamethylenetetramine; urotropine
;
_cell_volume    286.784
_exptl_crystal_colour 'colorless'
_exptl_crystal_density_diffrn 1.624
_exptl_crystal_description 'block'
_diffrn_ambient_temperature 293
_diffrn_ambient_pressure 3900000.0
_diffrn_radiation_probe x-ray
_diffrn_source synchrotron
_refine_special_details
;
Hirshfeld Atom Refinement

;
#These two values have been output from a single CSD field.
_refine_ls_R_factor_gt 0.0235
_refine_ls_wR_factor_gt 0.0235
_symmetry_cell_setting cubic
_symmetry_space_group_name_H-M 'I -4 3 m'
_symmetry_Int_Tables_number 217
loop_
_symmetry_equiv_pos_site_id
_symmetry_equiv_pos_as_xyz
1 x,y,z
2 1/2+x,1/2+y,1/2+z
3 y,-x,-z
4 x,-y,-z
5 z,x,y
6 1/2+y,1/2-x,1/2-z
7 1/2+x,1/2-y,1/2-z
8 1/2+z,1/2+x,1/2+y
9 -x,-y,z
10 y,x,z
11 -z,y,-x
12 1/2-x,1/2-y,1/2+z
13 1/2+y,1/2+x,1/2+z
14 1/2-z,1/2+y,1/2-x
15 -y,x,-z
16 -x,y,-z
17 z,-x,-y
18 1/2-y,1/2+x,1/2-z
19 1/2-x,1/2+y,1/2-z
20 1/2+z,1/2-x,1/2-y
21 -y,-x,z
22 -z,-y,x
23 1/2-y,1/2-x,1/2+z
24 1/2-z,1/2-y,1/2+x
25 -z,x,-y
26 1/2-z,1/2+x,1/2-y
27 z,-y,-x
28 1/2+z,1/2-y,1/2-x
29 -z,-x,y
30 1/2-z,1/2-x,1/2+y
31 z,y,x
32 1/2+z,1/2+y,1/2+x
33 x,-z,-y
34 y,z,x
35 1/2+x,1/2-z,1/2-y
36 1/2+y,1/2+z,1/2+x
37 x,z,y
38 1/2+x,1/2+z,1/2+y
39 -x,z,-y
40 y,-z,-x
41 1/2-x,1/2+z,1/2-y
42 1/2+y,1/2-z,1/2-x
43 -x,-z,y
44 1/2-x,1/2-z,1/2+y
45 -y,z,-x
46 1/2-y,1/2+z,1/2-x
47 -y,-z,x
48 1/2-y,1/2-z,1/2+x
_cell_length_a 6.59455(16)
_cell_length_b 6.59455(16)
_cell_length_c 6.59455(16)
_cell_angle_alpha 90
_cell_angle_beta 90
_cell_angle_gamma 90
_cell_formula_units_Z 2
loop_
_atom_type_symbol
_atom_type_radius_bond
C 0.68
H 0.23
N 0.68
loop_
_atom_site_label
_atom_site_type_symbol
_atom_site_fract_x
_atom_site_fract_y
_atom_site_fract_z
N1 N 0.13030(11) 0.13030(11) 0.13030(11)
C1 C 0.25392(18) 0.00000 0.00000
H1 H 0.347(2) 0.094(2) -0.094(2)
N1B N 0.13030(11) -0.13030(11) -0.13030(11)
C1B C 0.00000(18) -0.25392 0.00000
H1B H 0.094(2) -0.347(2) 0.094(2)
H1C H 0.347(2) -0.094(2) 0.094(2)
C1D C 0.00000(18) 0.25392 0.00000
H1D H -0.094(2) 0.347(2) 0.094(2)
N1H N -0.13030(11) -0.13030(11) 0.13030(11)
C1H C -0.25392(18) 0.00000 0.00000
H1H H -0.347(2) -0.094(2) -0.094(2)
H1I H 0.094(2) 0.347(2) -0.094(2)
N1J N -0.13030(11) 0.13030(11) -0.13030(11)
C1J C 0.00000(18) 0.00000 -0.25392
H1J H 0.094(2) 0.094(2) -0.347(2)
H1O H -0.347(2) 0.094(2) 0.094(2)
H1P H -0.094(2) -0.347(2) -0.094(2)
C1U C 0.00000(18) 0.00000 0.25392
H1U H 0.094(2) -0.094(2) 0.347(2)
H1Z H -0.094(2) -0.094(2) -0.347(2)
H1DA H -0.094(2) 0.094(2) 0.347(2)
#END

data_CSD_CIF_QAMCAM52
_audit_creation_date 2020-12-18
_audit_creation_method CSD-ConQuest-V1
_database_code_CSD QAMCAM52
_database_code_depnum_ccdc_archive 'CCDC 2005119'
_chemical_formula_sum 'C6 H12 N4'
_chemical_formula_moiety
;
C6 H12 N4
;
_journal_coden_Cambridge 1220
_journal_volume 27
_journal_year 2020
_journal_page_first 1094
_journal_name_full 'Chem.-Eur.J. '
loop_
_publ_author_name
"P.A.Gunka"
"A.Olejniczak"
"S.Fanetti"
"R.Bini"
"I.E.Collings"
"V.Svitlyk"
"K.F.Dziubek"
_chemical_name_systematic
;
1,3,5,7-tetraazatricyclo[3.3.1.1^3,7^]decane
;
_chemical_name_common
;
hexamethylenetetramine; urotropine
;
_cell_volume    282.765
_exptl_crystal_colour 'colorless'
_exptl_crystal_density_diffrn 1.647
_exptl_crystal_description 'block'
_diffrn_ambient_temperature 293
_diffrn_ambient_pressure 4510000.0
_diffrn_radiation_probe x-ray
_diffrn_source synchrotron
_refine_special_details
;
Hirshfeld Atom Refinement

;
#These two values have been output from a single CSD field.
_refine_ls_R_factor_gt 0.0281
_refine_ls_wR_factor_gt 0.0281
_symmetry_cell_setting cubic
_symmetry_space_group_name_H-M 'I -4 3 m'
_symmetry_Int_Tables_number 217
loop_
_symmetry_equiv_pos_site_id
_symmetry_equiv_pos_as_xyz
1 x,y,z
2 1/2+x,1/2+y,1/2+z
3 y,-x,-z
4 x,-y,-z
5 z,x,y
6 1/2+y,1/2-x,1/2-z
7 1/2+x,1/2-y,1/2-z
8 1/2+z,1/2+x,1/2+y
9 -x,-y,z
10 y,x,z
11 -z,y,-x
12 1/2-x,1/2-y,1/2+z
13 1/2+y,1/2+x,1/2+z
14 1/2-z,1/2+y,1/2-x
15 -y,x,-z
16 -x,y,-z
17 z,-x,-y
18 1/2-y,1/2+x,1/2-z
19 1/2-x,1/2+y,1/2-z
20 1/2+z,1/2-x,1/2-y
21 -y,-x,z
22 -z,-y,x
23 1/2-y,1/2-x,1/2+z
24 1/2-z,1/2-y,1/2+x
25 -z,x,-y
26 1/2-z,1/2+x,1/2-y
27 z,-y,-x
28 1/2+z,1/2-y,1/2-x
29 -z,-x,y
30 1/2-z,1/2-x,1/2+y
31 z,y,x
32 1/2+z,1/2+y,1/2+x
33 x,-z,-y
34 y,z,x
35 1/2+x,1/2-z,1/2-y
36 1/2+y,1/2+z,1/2+x
37 x,z,y
38 1/2+x,1/2+z,1/2+y
39 -x,z,-y
40 y,-z,-x
41 1/2-x,1/2+z,1/2-y
42 1/2+y,1/2-z,1/2-x
43 -x,-z,y
44 1/2-x,1/2-z,1/2+y
45 -y,z,-x
46 1/2-y,1/2+z,1/2-x
47 -y,-z,x
48 1/2-y,1/2-z,1/2+x
_cell_length_a 6.5636(1)
_cell_length_b 6.5636(1)
_cell_length_c 6.5636(1)
_cell_angle_alpha 90
_cell_angle_beta 90
_cell_angle_gamma 90
_cell_formula_units_Z 2
loop_
_atom_type_symbol
_atom_type_radius_bond
C 0.68
H 0.23
N 0.68
loop_
_atom_site_label
_atom_site_type_symbol
_atom_site_fract_x
_atom_site_fract_y
_atom_site_fract_z
N1 N 0.13120(13) 0.13120(13) 0.13120(13)
C1 C 0.2551(2) 0.00000 0.00000
H1 H 0.345(3) 0.090(3) -0.090(3)
N1B N 0.13120(13) -0.13120(13) -0.13120(13)
C1B C 0.0000(2) -0.25510 0.00000
H1B H 0.090(3) -0.345(3) 0.090(3)
H1C H 0.345(3) -0.090(3) 0.090(3)
C1D C 0.0000(2) 0.25510 0.00000
H1D H -0.090(3) 0.345(3) 0.090(3)
N1H N -0.13120(13) -0.13120(13) 0.13120(13)
C1H C -0.2551(2) 0.00000 0.00000
H1H H -0.345(3) -0.090(3) -0.090(3)
H1I H 0.090(3) 0.345(3) -0.090(3)
N1J N -0.13120(13) 0.13120(13) -0.13120(13)
C1J C 0.0000(2) 0.00000 -0.25510
H1J H 0.090(3) 0.090(3) -0.345(3)
H1O H -0.345(3) 0.090(3) 0.090(3)
H1P H -0.090(3) -0.345(3) -0.090(3)
C1U C 0.0000(2) 0.00000 0.25510
H1U H 0.090(3) -0.090(3) 0.345(3)
H1Z H -0.090(3) -0.090(3) -0.345(3)
H1DA H -0.090(3) 0.090(3) 0.345(3)
#END

data_CSD_CIF_QAMCAM53
_audit_creation_date 2020-12-18
_audit_creation_method CSD-ConQuest-V1
_database_code_CSD QAMCAM53
_database_code_depnum_ccdc_archive 'CCDC 2005120'
_chemical_formula_sum 'C6 H12 N4'
_chemical_formula_moiety
;
C6 H12 N4
;
_journal_coden_Cambridge 1220
_journal_volume 27
_journal_year 2020
_journal_page_first 1094
_journal_name_full 'Chem.-Eur.J. '
loop_
_publ_author_name
"P.A.Gunka"
"A.Olejniczak"
"S.Fanetti"
"R.Bini"
"I.E.Collings"
"V.Svitlyk"
"K.F.Dziubek"
_chemical_name_systematic
;
1,3,5,7-tetraazatricyclo[3.3.1.1^3,7^]decane
;
_chemical_name_common
;
hexamethylenetetramine; urotropine
;
_cell_volume    279.778
_exptl_crystal_colour 'colorless'
_exptl_crystal_density_diffrn 1.664
_exptl_crystal_description 'block'
_diffrn_ambient_temperature 293
_diffrn_ambient_pressure 4980000.0
_diffrn_radiation_probe x-ray
_diffrn_source synchrotron
_refine_special_details
;
Hirshfeld Atom Refinement

;
#These two values have been output from a single CSD field.
_refine_ls_R_factor_gt 0.032
_refine_ls_wR_factor_gt 0.032
_symmetry_cell_setting cubic
_symmetry_space_group_name_H-M 'I -4 3 m'
_symmetry_Int_Tables_number 217
loop_
_symmetry_equiv_pos_site_id
_symmetry_equiv_pos_as_xyz
1 x,y,z
2 1/2+x,1/2+y,1/2+z
3 y,-x,-z
4 x,-y,-z
5 z,x,y
6 1/2+y,1/2-x,1/2-z
7 1/2+x,1/2-y,1/2-z
8 1/2+z,1/2+x,1/2+y
9 -x,-y,z
10 y,x,z
11 -z,y,-x
12 1/2-x,1/2-y,1/2+z
13 1/2+y,1/2+x,1/2+z
14 1/2-z,1/2+y,1/2-x
15 -y,x,-z
16 -x,y,-z
17 z,-x,-y
18 1/2-y,1/2+x,1/2-z
19 1/2-x,1/2+y,1/2-z
20 1/2+z,1/2-x,1/2-y
21 -y,-x,z
22 -z,-y,x
23 1/2-y,1/2-x,1/2+z
24 1/2-z,1/2-y,1/2+x
25 -z,x,-y
26 1/2-z,1/2+x,1/2-y
27 z,-y,-x
28 1/2+z,1/2-y,1/2-x
29 -z,-x,y
30 1/2-z,1/2-x,1/2+y
31 z,y,x
32 1/2+z,1/2+y,1/2+x
33 x,-z,-y
34 y,z,x
35 1/2+x,1/2-z,1/2-y
36 1/2+y,1/2+z,1/2+x
37 x,z,y
38 1/2+x,1/2+z,1/2+y
39 -x,z,-y
40 y,-z,-x
41 1/2-x,1/2+z,1/2-y
42 1/2+y,1/2-z,1/2-x
43 -x,-z,y
44 1/2-x,1/2-z,1/2+y
45 -y,z,-x
46 1/2-y,1/2+z,1/2-x
47 -y,-z,x
48 1/2-y,1/2-z,1/2+x
_cell_length_a 6.5404(2)
_cell_length_b 6.5404(2)
_cell_length_c 6.5404(2)
_cell_angle_alpha 90
_cell_angle_beta 90
_cell_angle_gamma 90
_cell_formula_units_Z 2
loop_
_atom_type_symbol
_atom_type_radius_bond
C 0.68
H 0.23
N 0.68
loop_
_atom_site_label
_atom_site_type_symbol
_atom_site_fract_x
_atom_site_fract_y
_atom_site_fract_z
N1 N 0.13150(16) 0.13150(16) 0.13150(16)
C1 C 0.2560(3) 0.00000 0.00000
H1 H 0.343(4) 0.090(4) -0.090(4)
N1B N 0.13150(16) -0.13150(16) -0.13150(16)
C1B C 0.0000(3) -0.25600 0.00000
H1B H 0.090(4) -0.343(4) 0.090(4)
H1C H 0.343(4) -0.090(4) 0.090(4)
C1D C 0.0000(3) 0.25600 0.00000
H1D H -0.090(4) 0.343(4) 0.090(4)
N1H N -0.13150(16) -0.13150(16) 0.13150(16)
C1H C -0.2560(3) 0.00000 0.00000
H1H H -0.343(4) -0.090(4) -0.090(4)
H1I H 0.090(4) 0.343(4) -0.090(4)
N1J N -0.13150(16) 0.13150(16) -0.13150(16)
C1J C 0.0000(3) 0.00000 -0.25600
H1J H 0.090(4) 0.090(4) -0.343(4)
H1O H -0.343(4) 0.090(4) 0.090(4)
H1P H -0.090(4) -0.343(4) -0.090(4)
C1U C 0.0000(3) 0.00000 0.25600
H1U H 0.090(4) -0.090(4) 0.343(4)
H1Z H -0.090(4) -0.090(4) -0.343(4)
H1DA H -0.090(4) 0.090(4) 0.343(4)
#END

data_CSD_CIF_QAMCAM54
_audit_creation_date 2020-12-18
_audit_creation_method CSD-ConQuest-V1
_database_code_CSD QAMCAM54
_database_code_depnum_ccdc_archive 'CCDC 2005121'
_chemical_formula_sum 'C6 H12 N4'
_chemical_formula_moiety
;
C6 H12 N4
;
_journal_coden_Cambridge 1220
_journal_volume 27
_journal_year 2020
_journal_page_first 1094
_journal_name_full 'Chem.-Eur.J. '
loop_
_publ_author_name
"P.A.Gunka"
"A.Olejniczak"
"S.Fanetti"
"R.Bini"
"I.E.Collings"
"V.Svitlyk"
"K.F.Dziubek"
_chemical_name_systematic
;
1,3,5,7-tetraazatricyclo[3.3.1.1^3,7^]decane
;
_chemical_name_common
;
hexamethylenetetramine; urotropine
;
_cell_volume    272.425
_exptl_crystal_colour 'colorless'
_exptl_crystal_density_diffrn 1.709
_exptl_crystal_description 'block'
_diffrn_ambient_temperature 293
_diffrn_ambient_pressure 6090000.0
_diffrn_radiation_probe x-ray
_diffrn_source synchrotron
_refine_special_details
;
Hirshfeld Atom Refinement

;
#These two values have been output from a single CSD field.
_refine_ls_R_factor_gt 0.028
_refine_ls_wR_factor_gt 0.028
_symmetry_cell_setting cubic
_symmetry_space_group_name_H-M 'I -4 3 m'
_symmetry_Int_Tables_number 217
loop_
_symmetry_equiv_pos_site_id
_symmetry_equiv_pos_as_xyz
1 x,y,z
2 1/2+x,1/2+y,1/2+z
3 y,-x,-z
4 x,-y,-z
5 z,x,y
6 1/2+y,1/2-x,1/2-z
7 1/2+x,1/2-y,1/2-z
8 1/2+z,1/2+x,1/2+y
9 -x,-y,z
10 y,x,z
11 -z,y,-x
12 1/2-x,1/2-y,1/2+z
13 1/2+y,1/2+x,1/2+z
14 1/2-z,1/2+y,1/2-x
15 -y,x,-z
16 -x,y,-z
17 z,-x,-y
18 1/2-y,1/2+x,1/2-z
19 1/2-x,1/2+y,1/2-z
20 1/2+z,1/2-x,1/2-y
21 -y,-x,z
22 -z,-y,x
23 1/2-y,1/2-x,1/2+z
24 1/2-z,1/2-y,1/2+x
25 -z,x,-y
26 1/2-z,1/2+x,1/2-y
27 z,-y,-x
28 1/2+z,1/2-y,1/2-x
29 -z,-x,y
30 1/2-z,1/2-x,1/2+y
31 z,y,x
32 1/2+z,1/2+y,1/2+x
33 x,-z,-y
34 y,z,x
35 1/2+x,1/2-z,1/2-y
36 1/2+y,1/2+z,1/2+x
37 x,z,y
38 1/2+x,1/2+z,1/2+y
39 -x,z,-y
40 y,-z,-x
41 1/2-x,1/2+z,1/2-y
42 1/2+y,1/2-z,1/2-x
43 -x,-z,y
44 1/2-x,1/2-z,1/2+y
45 -y,z,-x
46 1/2-y,1/2+z,1/2-x
47 -y,-z,x
48 1/2-y,1/2-z,1/2+x
_cell_length_a 6.4826(2)
_cell_length_b 6.4826(2)
_cell_length_c 6.4826(2)
_cell_angle_alpha 90
_cell_angle_beta 90
_cell_angle_gamma 90
_cell_formula_units_Z 2
loop_
_atom_type_symbol
_atom_type_radius_bond
C 0.68
H 0.23
N 0.68
loop_
_atom_site_label
_atom_site_type_symbol
_atom_site_fract_x
_atom_site_fract_y
_atom_site_fract_z
N1 N -0.13258(11) -0.13258(11) -0.13258(11)
C1 C -0.25808(18) 0.00000 0.00000
H1 H -0.350(3) -0.099(3) 0.099(3)
N1B N -0.13258(11) 0.13258(11) 0.13258(11)
C1B C 0.00000(18) 0.25808 0.00000
H1B H -0.099(3) 0.350(3) -0.099(3)
H1C H -0.350(3) 0.099(3) -0.099(3)
C1D C 0.00000(18) -0.25808 0.00000
H1D H 0.099(3) -0.350(3) -0.099(3)
N1H N 0.13258(11) 0.13258(11) -0.13258(11)
C1H C 0.25808(18) 0.00000 0.00000
H1H H 0.350(3) 0.099(3) 0.099(3)
H1I H -0.099(3) -0.350(3) 0.099(3)
N1J N 0.13258(11) -0.13258(11) 0.13258(11)
C1J C 0.00000(18) 0.00000 0.25808
H1J H -0.099(3) -0.099(3) 0.350(3)
H1O H 0.350(3) -0.099(3) -0.099(3)
H1P H 0.099(3) 0.350(3) 0.099(3)
C1U C 0.00000(18) 0.00000 -0.25808
H1U H -0.099(3) 0.099(3) -0.350(3)
H1Z H 0.099(3) 0.099(3) 0.350(3)
H1DA H 0.099(3) -0.099(3) -0.350(3)
#END

data_CSD_CIF_QAMCAM55
_audit_creation_date 2020-12-18
_audit_creation_method CSD-ConQuest-V1
_database_code_CSD QAMCAM55
_database_code_depnum_ccdc_archive 'CCDC 2005122'
_chemical_formula_sum 'C6 H12 N4'
_chemical_formula_moiety
;
C6 H12 N4
;
_journal_coden_Cambridge 1220
_journal_volume 27
_journal_year 2020
_journal_page_first 1094
_journal_name_full 'Chem.-Eur.J. '
loop_
_publ_author_name
"P.A.Gunka"
"A.Olejniczak"
"S.Fanetti"
"R.Bini"
"I.E.Collings"
"V.Svitlyk"
"K.F.Dziubek"
_chemical_name_systematic
;
1,3,5,7-tetraazatricyclo[3.3.1.1^3,7^]decane
;
_chemical_name_common
;
hexamethylenetetramine; urotropine
;
_cell_volume    263.609
_exptl_crystal_colour 'colorless'
_exptl_crystal_density_diffrn 1.766
_exptl_crystal_description 'block'
_diffrn_ambient_temperature 293
_diffrn_ambient_pressure 8010000.0
_diffrn_radiation_probe x-ray
_diffrn_source synchrotron
_refine_special_details
;
Hirshfeld Atom Refinement

;
#These two values have been output from a single CSD field.
_refine_ls_R_factor_gt 0.0329
_refine_ls_wR_factor_gt 0.0329
_symmetry_cell_setting cubic
_symmetry_space_group_name_H-M 'I -4 3 m'
_symmetry_Int_Tables_number 217
loop_
_symmetry_equiv_pos_site_id
_symmetry_equiv_pos_as_xyz
1 x,y,z
2 1/2+x,1/2+y,1/2+z
3 y,-x,-z
4 x,-y,-z
5 z,x,y
6 1/2+y,1/2-x,1/2-z
7 1/2+x,1/2-y,1/2-z
8 1/2+z,1/2+x,1/2+y
9 -x,-y,z
10 y,x,z
11 -z,y,-x
12 1/2-x,1/2-y,1/2+z
13 1/2+y,1/2+x,1/2+z
14 1/2-z,1/2+y,1/2-x
15 -y,x,-z
16 -x,y,-z
17 z,-x,-y
18 1/2-y,1/2+x,1/2-z
19 1/2-x,1/2+y,1/2-z
20 1/2+z,1/2-x,1/2-y
21 -y,-x,z
22 -z,-y,x
23 1/2-y,1/2-x,1/2+z
24 1/2-z,1/2-y,1/2+x
25 -z,x,-y
26 1/2-z,1/2+x,1/2-y
27 z,-y,-x
28 1/2+z,1/2-y,1/2-x
29 -z,-x,y
30 1/2-z,1/2-x,1/2+y
31 z,y,x
32 1/2+z,1/2+y,1/2+x
33 x,-z,-y
34 y,z,x
35 1/2+x,1/2-z,1/2-y
36 1/2+y,1/2+z,1/2+x
37 x,z,y
38 1/2+x,1/2+z,1/2+y
39 -x,z,-y
40 y,-z,-x
41 1/2-x,1/2+z,1/2-y
42 1/2+y,1/2-z,1/2-x
43 -x,-z,y
44 1/2-x,1/2-z,1/2+y
45 -y,z,-x
46 1/2-y,1/2+z,1/2-x
47 -y,-z,x
48 1/2-y,1/2-z,1/2+x
_cell_length_a 6.4119(2)
_cell_length_b 6.4119(2)
_cell_length_c 6.4119(2)
_cell_angle_alpha 90
_cell_angle_beta 90
_cell_angle_gamma 90
_cell_formula_units_Z 2
loop_
_atom_type_symbol
_atom_type_radius_bond
C 0.68
H 0.23
N 0.68
loop_
_atom_site_label
_atom_site_type_symbol
_atom_site_fract_x
_atom_site_fract_y
_atom_site_fract_z
N1 N 0.13388(18) 0.13388(18) 0.13388(18)
C1 C 0.2605(4) 0.00000 0.00000
H1 H 0.354(4) 0.099(3) -0.099(3)
N1B N 0.13388(18) -0.13388(18) -0.13388(18)
C1B C 0.0000(4) -0.26050 0.00000
H1B H 0.099(4) -0.354(3) 0.099(3)
H1C H 0.354(4) -0.099(3) 0.099(3)
C1D C 0.0000(4) 0.26050 0.00000
H1D H -0.099(4) 0.354(3) 0.099(3)
N1H N -0.13388(18) -0.13388(18) 0.13388(18)
C1H C -0.2605(4) 0.00000 0.00000
H1H H -0.354(4) -0.099(3) -0.099(3)
H1I H 0.099(4) 0.354(3) -0.099(3)
N1J N -0.13388(18) 0.13388(18) -0.13388(18)
C1J C 0.0000(4) 0.00000 -0.26050
H1J H 0.099(4) 0.099(3) -0.354(3)
H1O H -0.354(4) 0.099(3) 0.099(3)
H1P H -0.099(4) -0.354(3) -0.099(3)
C1U C 0.0000(4) 0.00000 0.26050
H1U H 0.099(4) -0.099(3) 0.354(3)
H1Z H -0.099(4) -0.099(3) -0.354(3)
H1DA H -0.099(4) 0.099(3) 0.354(3)
#END

data_CSD_CIF_QAMCAM56
_audit_creation_date 2020-12-18
_audit_creation_method CSD-ConQuest-V1
_database_code_CSD QAMCAM56
_database_code_depnum_ccdc_archive 'CCDC 2005123'
_chemical_formula_sum 'C6 H12 N4'
_chemical_formula_moiety
;
C6 H12 N4
;
_journal_coden_Cambridge 1220
_journal_volume 27
_journal_year 2020
_journal_page_first 1094
_journal_name_full 'Chem.-Eur.J. '
loop_
_publ_author_name
"P.A.Gunka"
"A.Olejniczak"
"S.Fanetti"
"R.Bini"
"I.E.Collings"
"V.Svitlyk"
"K.F.Dziubek"
_chemical_name_systematic
;
1,3,5,7-tetraazatricyclo[3.3.1.1^3,7^]decane
;
_chemical_name_common
;
hexamethylenetetramine; urotropine
;
_cell_volume    256.447
_exptl_crystal_colour 'colorless'
_exptl_crystal_density_diffrn 1.816
_exptl_crystal_description 'block'
_diffrn_ambient_temperature 293
_diffrn_ambient_pressure 10000000.0
_diffrn_radiation_probe x-ray
_diffrn_source synchrotron
_refine_special_details
;
Hirshfeld Atom Refinement

;
#These two values have been output from a single CSD field.
_refine_ls_R_factor_gt 0.0385
_refine_ls_wR_factor_gt 0.0385
_symmetry_cell_setting cubic
_symmetry_space_group_name_H-M 'I -4 3 m'
_symmetry_Int_Tables_number 217
loop_
_symmetry_equiv_pos_site_id
_symmetry_equiv_pos_as_xyz
1 x,y,z
2 1/2+x,1/2+y,1/2+z
3 y,-x,-z
4 x,-y,-z
5 z,x,y
6 1/2+y,1/2-x,1/2-z
7 1/2+x,1/2-y,1/2-z
8 1/2+z,1/2+x,1/2+y
9 -x,-y,z
10 y,x,z
11 -z,y,-x
12 1/2-x,1/2-y,1/2+z
13 1/2+y,1/2+x,1/2+z
14 1/2-z,1/2+y,1/2-x
15 -y,x,-z
16 -x,y,-z
17 z,-x,-y
18 1/2-y,1/2+x,1/2-z
19 1/2-x,1/2+y,1/2-z
20 1/2+z,1/2-x,1/2-y
21 -y,-x,z
22 -z,-y,x
23 1/2-y,1/2-x,1/2+z
24 1/2-z,1/2-y,1/2+x
25 -z,x,-y
26 1/2-z,1/2+x,1/2-y
27 z,-y,-x
28 1/2+z,1/2-y,1/2-x
29 -z,-x,y
30 1/2-z,1/2-x,1/2+y
31 z,y,x
32 1/2+z,1/2+y,1/2+x
33 x,-z,-y
34 y,z,x
35 1/2+x,1/2-z,1/2-y
36 1/2+y,1/2+z,1/2+x
37 x,z,y
38 1/2+x,1/2+z,1/2+y
39 -x,z,-y
40 y,-z,-x
41 1/2-x,1/2+z,1/2-y
42 1/2+y,1/2-z,1/2-x
43 -x,-z,y
44 1/2-x,1/2-z,1/2+y
45 -y,z,-x
46 1/2-y,1/2+z,1/2-x
47 -y,-z,x
48 1/2-y,1/2-z,1/2+x
_cell_length_a 6.3533(1)
_cell_length_b 6.3533(1)
_cell_length_c 6.3533(1)
_cell_angle_alpha 90
_cell_angle_beta 90
_cell_angle_gamma 90
_cell_formula_units_Z 2
loop_
_atom_type_symbol
_atom_type_radius_bond
C 0.68
H 0.23
N 0.68
loop_
_atom_site_label
_atom_site_type_symbol
_atom_site_fract_x
_atom_site_fract_y
_atom_site_fract_z
N1 N 0.1347(3) 0.1347(3) 0.1347(3)
C1 C 0.2621(7) 0.00000 0.00000
H1 H 0.350(5) 0.088(5) -0.088(5)
N1B N 0.1347(3) -0.1347(3) -0.1347(3)
C1B C 0.0000(7) -0.26210 0.00000
H1B H 0.088(5) -0.350(5) 0.088(5)
H1C H 0.350(5) -0.088(5) 0.088(5)
C1D C 0.0000(7) 0.26210 0.00000
H1D H -0.088(5) 0.350(5) 0.088(5)
N1H N -0.1347(3) -0.1347(3) 0.1347(3)
C1H C -0.2621(7) 0.00000 0.00000
H1H H -0.350(5) -0.088(5) -0.088(5)
H1I H 0.088(5) 0.350(5) -0.088(5)
N1J N -0.1347(3) 0.1347(3) -0.1347(3)
C1J C 0.0000(7) 0.00000 -0.26210
H1J H 0.088(5) 0.088(5) -0.350(5)
H1O H -0.350(5) 0.088(5) 0.088(5)
H1P H -0.088(5) -0.350(5) -0.088(5)
C1U C 0.0000(7) 0.00000 0.26210
H1U H 0.088(5) -0.088(5) 0.350(5)
H1Z H -0.088(5) -0.088(5) -0.350(5)
H1DA H -0.088(5) 0.088(5) 0.350(5)
#END

data_CSD_CIF_QAMCAM57
_audit_creation_date 2020-12-18
_audit_creation_method CSD-ConQuest-V1
_database_code_CSD QAMCAM57
_database_code_depnum_ccdc_archive 'CCDC 2005124'
_chemical_formula_sum 'C6 H12 N4'
_chemical_formula_moiety
;
C6 H12 N4
;
_journal_coden_Cambridge 1220
_journal_volume 27
_journal_year 2020
_journal_page_first 1094
_journal_name_full 'Chem.-Eur.J. '
loop_
_publ_author_name
"P.A.Gunka"
"A.Olejniczak"
"S.Fanetti"
"R.Bini"
"I.E.Collings"
"V.Svitlyk"
"K.F.Dziubek"
_chemical_name_systematic
;
1,3,5,7-tetraazatricyclo[3.3.1.1^3,7^]decane
;
_chemical_name_common
;
hexamethylenetetramine; urotropine
;
_cell_volume    252.005
_exptl_crystal_colour 'colorless'
_exptl_crystal_density_diffrn 1.848
_exptl_crystal_description 'block'
_diffrn_ambient_temperature 293
_diffrn_ambient_pressure 11450000.0
_diffrn_radiation_probe x-ray
_diffrn_source synchrotron
_refine_special_details
;
Hirshfeld Atom Refinement

;
#These two values have been output from a single CSD field.
_refine_ls_R_factor_gt 0.0314
_refine_ls_wR_factor_gt 0.0314
_symmetry_cell_setting cubic
_symmetry_space_group_name_H-M 'I -4 3 m'
_symmetry_Int_Tables_number 217
loop_
_symmetry_equiv_pos_site_id
_symmetry_equiv_pos_as_xyz
1 x,y,z
2 1/2+x,1/2+y,1/2+z
3 y,-x,-z
4 x,-y,-z
5 z,x,y
6 1/2+y,1/2-x,1/2-z
7 1/2+x,1/2-y,1/2-z
8 1/2+z,1/2+x,1/2+y
9 -x,-y,z
10 y,x,z
11 -z,y,-x
12 1/2-x,1/2-y,1/2+z
13 1/2+y,1/2+x,1/2+z
14 1/2-z,1/2+y,1/2-x
15 -y,x,-z
16 -x,y,-z
17 z,-x,-y
18 1/2-y,1/2+x,1/2-z
19 1/2-x,1/2+y,1/2-z
20 1/2+z,1/2-x,1/2-y
21 -y,-x,z
22 -z,-y,x
23 1/2-y,1/2-x,1/2+z
24 1/2-z,1/2-y,1/2+x
25 -z,x,-y
26 1/2-z,1/2+x,1/2-y
27 z,-y,-x
28 1/2+z,1/2-y,1/2-x
29 -z,-x,y
30 1/2-z,1/2-x,1/2+y
31 z,y,x
32 1/2+z,1/2+y,1/2+x
33 x,-z,-y
34 y,z,x
35 1/2+x,1/2-z,1/2-y
36 1/2+y,1/2+z,1/2+x
37 x,z,y
38 1/2+x,1/2+z,1/2+y
39 -x,z,-y
40 y,-z,-x
41 1/2-x,1/2+z,1/2-y
42 1/2+y,1/2-z,1/2-x
43 -x,-z,y
44 1/2-x,1/2-z,1/2+y
45 -y,z,-x
46 1/2-y,1/2+z,1/2-x
47 -y,-z,x
48 1/2-y,1/2-z,1/2+x
_cell_length_a 6.3164(5)
_cell_length_b 6.3164(5)
_cell_length_c 6.3164(5)
_cell_angle_alpha 90
_cell_angle_beta 90
_cell_angle_gamma 90
_cell_formula_units_Z 2
loop_
_atom_type_symbol
_atom_type_radius_bond
C 0.68
H 0.23
N 0.68
loop_
_atom_site_label
_atom_site_type_symbol
_atom_site_fract_x
_atom_site_fract_y
_atom_site_fract_z
N1 N 0.1356(2) 0.1356(2) 0.1356(2)
C1 C 0.2635(3) 0.00000 0.00000
H1 H 0.359(4) 0.094(3) -0.094(3)
N1B N 0.1356(2) -0.1356(2) -0.1356(2)
C1B C 0.0000(3) -0.26350 0.00000
H1B H 0.094(4) -0.359(3) 0.094(3)
H1C H 0.359(4) -0.094(3) 0.094(3)
C1D C 0.0000(3) 0.26350 0.00000
H1D H -0.094(4) 0.359(3) 0.094(3)
N1H N -0.1356(2) -0.1356(2) 0.1356(2)
C1H C -0.2635(3) 0.00000 0.00000
H1H H -0.359(4) -0.094(3) -0.094(3)
H1I H 0.094(4) 0.359(3) -0.094(3)
N1J N -0.1356(2) 0.1356(2) -0.1356(2)
C1J C 0.0000(3) 0.00000 -0.26350
H1J H 0.094(4) 0.094(3) -0.359(3)
H1O H -0.359(4) 0.094(3) 0.094(3)
H1P H -0.094(4) -0.359(3) -0.094(3)
C1U C 0.0000(3) 0.00000 0.26350
H1U H 0.094(4) -0.094(3) 0.359(3)
H1Z H -0.094(4) -0.094(3) -0.359(3)
H1DA H -0.094(4) 0.094(3) 0.359(3)
#END

data_CSD_CIF_QAMCAM58
_audit_creation_date 2020-12-18
_audit_creation_method CSD-ConQuest-V1
_database_code_CSD QAMCAM58
_database_code_depnum_ccdc_archive 'CCDC 2005125'
_chemical_formula_sum 'C6 H12 N4'
_chemical_formula_moiety
;
C6 H12 N4
;
_journal_coden_Cambridge 1220
_journal_volume 27
_journal_year 2020
_journal_page_first 1094
_journal_name_full 'Chem.-Eur.J. '
loop_
_publ_author_name
"P.A.Gunka"
"A.Olejniczak"
"S.Fanetti"
"R.Bini"
"I.E.Collings"
"V.Svitlyk"
"K.F.Dziubek"
_chemical_name_systematic
;
1,3,5,7-tetraazatricyclo[3.3.1.1^3,7^]decane
;
_chemical_name_common
;
hexamethylenetetramine; urotropine
;
_cell_volume    250.869
_exptl_crystal_colour 'colorless'
_exptl_crystal_density_diffrn 1.856
_exptl_crystal_description 'block'
_diffrn_ambient_temperature 293
_diffrn_ambient_pressure 11900000.0
_diffrn_radiation_probe x-ray
_diffrn_source synchrotron
_refine_special_details
;
Hirshfeld Atom Refinement

;
#These two values have been output from a single CSD field.
_refine_ls_R_factor_gt 0.0238
_refine_ls_wR_factor_gt 0.0238
_symmetry_cell_setting cubic
_symmetry_space_group_name_H-M 'I -4 3 m'
_symmetry_Int_Tables_number 217
loop_
_symmetry_equiv_pos_site_id
_symmetry_equiv_pos_as_xyz
1 x,y,z
2 1/2+x,1/2+y,1/2+z
3 y,-x,-z
4 x,-y,-z
5 z,x,y
6 1/2+y,1/2-x,1/2-z
7 1/2+x,1/2-y,1/2-z
8 1/2+z,1/2+x,1/2+y
9 -x,-y,z
10 y,x,z
11 -z,y,-x
12 1/2-x,1/2-y,1/2+z
13 1/2+y,1/2+x,1/2+z
14 1/2-z,1/2+y,1/2-x
15 -y,x,-z
16 -x,y,-z
17 z,-x,-y
18 1/2-y,1/2+x,1/2-z
19 1/2-x,1/2+y,1/2-z
20 1/2+z,1/2-x,1/2-y
21 -y,-x,z
22 -z,-y,x
23 1/2-y,1/2-x,1/2+z
24 1/2-z,1/2-y,1/2+x
25 -z,x,-y
26 1/2-z,1/2+x,1/2-y
27 z,-y,-x
28 1/2+z,1/2-y,1/2-x
29 -z,-x,y
30 1/2-z,1/2-x,1/2+y
31 z,y,x
32 1/2+z,1/2+y,1/2+x
33 x,-z,-y
34 y,z,x
35 1/2+x,1/2-z,1/2-y
36 1/2+y,1/2+z,1/2+x
37 x,z,y
38 1/2+x,1/2+z,1/2+y
39 -x,z,-y
40 y,-z,-x
41 1/2-x,1/2+z,1/2-y
42 1/2+y,1/2-z,1/2-x
43 -x,-z,y
44 1/2-x,1/2-z,1/2+y
45 -y,z,-x
46 1/2-y,1/2+z,1/2-x
47 -y,-z,x
48 1/2-y,1/2-z,1/2+x
_cell_length_a 6.3069(4)
_cell_length_b 6.3069(4)
_cell_length_c 6.3069(4)
_cell_angle_alpha 90
_cell_angle_beta 90
_cell_angle_gamma 90
_cell_formula_units_Z 2
loop_
_atom_type_symbol
_atom_type_radius_bond
C 0.68
H 0.23
N 0.68
loop_
_atom_site_label
_atom_site_type_symbol
_atom_site_fract_x
_atom_site_fract_y
_atom_site_fract_z
N1 N 0.1359(2) 0.1359(2) 0.1359(2)
C1 C 0.2642(3) 0.00000 0.00000
H1 H 0.353(3) -0.098(3) 0.098(3)
N1B N 0.1359(2) -0.1359(2) -0.1359(2)
C1B C 0.0000(3) -0.26420 0.00000
H1B H -0.098(3) -0.353(3) -0.098(3)
H1C H 0.353(3) 0.098(3) -0.098(3)
C1D C 0.0000(3) 0.26420 0.00000
H1D H 0.098(3) 0.353(3) -0.098(3)
N1H N -0.1359(2) -0.1359(2) 0.1359(2)
C1H C -0.2642(3) 0.00000 0.00000
H1H H -0.353(3) 0.098(3) 0.098(3)
H1I H -0.098(3) 0.353(3) 0.098(3)
N1J N -0.1359(2) 0.1359(2) -0.1359(2)
C1J C 0.0000(3) 0.00000 -0.26420
H1J H -0.098(3) -0.098(3) -0.353(3)
H1O H -0.353(3) -0.098(3) -0.098(3)
H1P H 0.098(3) -0.353(3) 0.098(3)
C1U C 0.0000(3) 0.00000 0.26420
H1U H -0.098(3) 0.098(3) 0.353(3)
H1Z H 0.098(3) 0.098(3) -0.353(3)
H1DA H 0.098(3) -0.098(3) 0.353(3)
#END

data_CSD_CIF_QAMCAM59
_audit_creation_date 2020-12-18
_audit_creation_method CSD-ConQuest-V1
_database_code_CSD QAMCAM59
_database_code_depnum_ccdc_archive 'CCDC 2005126'
_chemical_formula_sum 'C6 H12 N4'
_chemical_formula_moiety
;
C6 H12 N4
;
_journal_coden_Cambridge 1220
_journal_volume 27
_journal_year 2020
_journal_page_first 1094
_journal_name_full 'Chem.-Eur.J. '
loop_
_publ_author_name
"P.A.Gunka"
"A.Olejniczak"
"S.Fanetti"
"R.Bini"
"I.E.Collings"
"V.Svitlyk"
"K.F.Dziubek"
_chemical_name_systematic
;
1,3,5,7-tetraazatricyclo[3.3.1.1^3,7^]decane
;
_chemical_name_common
;
hexamethylenetetramine; urotropine
;
_cell_volume    249.024
_exptl_crystal_colour 'colorless'
_exptl_crystal_density_diffrn 1.87
_exptl_crystal_description 'block'
_diffrn_ambient_temperature 293
_diffrn_ambient_pressure 12280000.0
_diffrn_radiation_probe x-ray
_diffrn_source synchrotron
_refine_special_details
;
Hirshfeld Atom Refinement

;
#These two values have been output from a single CSD field.
_refine_ls_R_factor_gt 0.037
_refine_ls_wR_factor_gt 0.037
_symmetry_cell_setting cubic
_symmetry_space_group_name_H-M 'I -4 3 m'
_symmetry_Int_Tables_number 217
loop_
_symmetry_equiv_pos_site_id
_symmetry_equiv_pos_as_xyz
1 x,y,z
2 1/2+x,1/2+y,1/2+z
3 y,-x,-z
4 x,-y,-z
5 z,x,y
6 1/2+y,1/2-x,1/2-z
7 1/2+x,1/2-y,1/2-z
8 1/2+z,1/2+x,1/2+y
9 -x,-y,z
10 y,x,z
11 -z,y,-x
12 1/2-x,1/2-y,1/2+z
13 1/2+y,1/2+x,1/2+z
14 1/2-z,1/2+y,1/2-x
15 -y,x,-z
16 -x,y,-z
17 z,-x,-y
18 1/2-y,1/2+x,1/2-z
19 1/2-x,1/2+y,1/2-z
20 1/2+z,1/2-x,1/2-y
21 -y,-x,z
22 -z,-y,x
23 1/2-y,1/2-x,1/2+z
24 1/2-z,1/2-y,1/2+x
25 -z,x,-y
26 1/2-z,1/2+x,1/2-y
27 z,-y,-x
28 1/2+z,1/2-y,1/2-x
29 -z,-x,y
30 1/2-z,1/2-x,1/2+y
31 z,y,x
32 1/2+z,1/2+y,1/2+x
33 x,-z,-y
34 y,z,x
35 1/2+x,1/2-z,1/2-y
36 1/2+y,1/2+z,1/2+x
37 x,z,y
38 1/2+x,1/2+z,1/2+y
39 -x,z,-y
40 y,-z,-x
41 1/2-x,1/2+z,1/2-y
42 1/2+y,1/2-z,1/2-x
43 -x,-z,y
44 1/2-x,1/2-z,1/2+y
45 -y,z,-x
46 1/2-y,1/2+z,1/2-x
47 -y,-z,x
48 1/2-y,1/2-z,1/2+x
_cell_length_a 6.2914(3)
_cell_length_b 6.2914(3)
_cell_length_c 6.2914(3)
_cell_angle_alpha 90
_cell_angle_beta 90
_cell_angle_gamma 90
_cell_formula_units_Z 2
loop_
_atom_type_symbol
_atom_type_radius_bond
C 0.68
H 0.23
N 0.68
loop_
_atom_site_label
_atom_site_type_symbol
_atom_site_fract_x
_atom_site_fract_y
_atom_site_fract_z
N1 N 0.1356(2) 0.1356(2) 0.1356(2)
C1 C 0.2651(3) 0.00000 0.00000
H1 H 0.364(3) 0.104(4) -0.104(4)
N1B N 0.1356(2) -0.1356(2) -0.1356(2)
C1B C 0.0000(3) -0.26510 0.00000
H1B H 0.104(3) -0.364(4) 0.104(4)
H1C H 0.364(3) -0.104(4) 0.104(4)
C1D C 0.0000(3) 0.26510 0.00000
H1D H -0.104(3) 0.364(4) 0.104(4)
N1H N -0.1356(2) -0.1356(2) 0.1356(2)
C1H C -0.2651(3) 0.00000 0.00000
H1H H -0.364(3) -0.104(4) -0.104(4)
H1I H 0.104(3) 0.364(4) -0.104(4)
N1J N -0.1356(2) 0.1356(2) -0.1356(2)
C1J C 0.0000(3) 0.00000 -0.26510
H1J H 0.104(3) 0.104(4) -0.364(4)
H1O H -0.364(3) 0.104(4) 0.104(4)
H1P H -0.104(3) -0.364(4) -0.104(4)
C1U C 0.0000(3) 0.00000 0.26510
H1U H 0.104(3) -0.104(4) 0.364(4)
H1Z H -0.104(3) -0.104(4) -0.364(4)
H1DA H -0.104(3) 0.104(4) 0.364(4)
#END

data_CSD_CIF_QAMCAM60
_audit_creation_date 2020-12-18
_audit_creation_method CSD-ConQuest-V1
_database_code_CSD QAMCAM60
_database_code_depnum_ccdc_archive 'CCDC 2005127'
_chemical_formula_sum 'C6 H12 N4'
_chemical_formula_moiety
;
C6 H12 N4
;
_journal_coden_Cambridge 1220
_journal_volume 27
_journal_year 2020
_journal_page_first 1094
_journal_name_full 'Chem.-Eur.J. '
loop_
_publ_author_name
"P.A.Gunka"
"A.Olejniczak"
"S.Fanetti"
"R.Bini"
"I.E.Collings"
"V.Svitlyk"
"K.F.Dziubek"
_chemical_name_systematic
;
1,3,5,7-tetraazatricyclo[3.3.1.1^3,7^]decane
;
_chemical_name_common
;
hexamethylenetetramine; urotropine
;
_cell_volume    247.614
_exptl_crystal_colour 'colorless'
_exptl_crystal_density_diffrn 1.88
_exptl_crystal_description 'block'
_diffrn_ambient_temperature 293
_diffrn_ambient_pressure 12820000.0
_diffrn_radiation_probe x-ray
_diffrn_source synchrotron
_refine_special_details
;
Hirshfeld Atom Refinement

;
#These two values have been output from a single CSD field.
_refine_ls_R_factor_gt 0.0297
_refine_ls_wR_factor_gt 0.0297
_symmetry_cell_setting cubic
_symmetry_space_group_name_H-M 'I -4 3 m'
_symmetry_Int_Tables_number 217
loop_
_symmetry_equiv_pos_site_id
_symmetry_equiv_pos_as_xyz
1 x,y,z
2 1/2+x,1/2+y,1/2+z
3 y,-x,-z
4 x,-y,-z
5 z,x,y
6 1/2+y,1/2-x,1/2-z
7 1/2+x,1/2-y,1/2-z
8 1/2+z,1/2+x,1/2+y
9 -x,-y,z
10 y,x,z
11 -z,y,-x
12 1/2-x,1/2-y,1/2+z
13 1/2+y,1/2+x,1/2+z
14 1/2-z,1/2+y,1/2-x
15 -y,x,-z
16 -x,y,-z
17 z,-x,-y
18 1/2-y,1/2+x,1/2-z
19 1/2-x,1/2+y,1/2-z
20 1/2+z,1/2-x,1/2-y
21 -y,-x,z
22 -z,-y,x
23 1/2-y,1/2-x,1/2+z
24 1/2-z,1/2-y,1/2+x
25 -z,x,-y
26 1/2-z,1/2+x,1/2-y
27 z,-y,-x
28 1/2+z,1/2-y,1/2-x
29 -z,-x,y
30 1/2-z,1/2-x,1/2+y
31 z,y,x
32 1/2+z,1/2+y,1/2+x
33 x,-z,-y
34 y,z,x
35 1/2+x,1/2-z,1/2-y
36 1/2+y,1/2+z,1/2+x
37 x,z,y
38 1/2+x,1/2+z,1/2+y
39 -x,z,-y
40 y,-z,-x
41 1/2-x,1/2+z,1/2-y
42 1/2+y,1/2-z,1/2-x
43 -x,-z,y
44 1/2-x,1/2-z,1/2+y
45 -y,z,-x
46 1/2-y,1/2+z,1/2-x
47 -y,-z,x
48 1/2-y,1/2-z,1/2+x
_cell_length_a 6.2795(2)
_cell_length_b 6.2795(2)
_cell_length_c 6.2795(2)
_cell_angle_alpha 90
_cell_angle_beta 90
_cell_angle_gamma 90
_cell_formula_units_Z 2
loop_
_atom_type_symbol
_atom_type_radius_bond
C 0.68
H 0.23
N 0.68
loop_
_atom_site_label
_atom_site_type_symbol
_atom_site_fract_x
_atom_site_fract_y
_atom_site_fract_z
N1 N 0.13606(15) 0.13606(15) 0.13606(15)
C1 C 0.2646(2) 0.00000 0.00000
H1 H 0.3557(19) 0.0929(18) -0.0929(18)
N1B N 0.13606(15) -0.13606(15) -0.13606(15)
C1B C 0.0000(2) -0.26460 0.00000
H1B H 0.0929(19) -0.3557(18) 0.0929(18)
H1C H 0.3557(19) -0.0929(18) 0.0929(18)
C1D C 0.0000(2) 0.26460 0.00000
H1D H -0.0929(19) 0.3557(18) 0.0929(18)
N1H N -0.13606(15) -0.13606(15) 0.13606(15)
C1H C -0.2646(2) 0.00000 0.00000
H1H H -0.3557(19) -0.0929(18) -0.0929(18)
H1I H 0.0929(19) 0.3557(18) -0.0929(18)
N1J N -0.13606(15) 0.13606(15) -0.13606(15)
C1J C 0.0000(2) 0.00000 -0.26460
H1J H 0.0929(19) 0.0929(18) -0.3557(18)
H1O H -0.3557(19) 0.0929(18) 0.0929(18)
H1P H -0.0929(19) -0.3557(18) -0.0929(18)
C1U C 0.0000(2) 0.00000 0.26460
H1U H 0.0929(19) -0.0929(18) 0.3557(18)
H1Z H -0.0929(19) -0.0929(18) -0.3557(18)
H1DA H -0.0929(19) 0.0929(18) 0.3557(18)
#END

data_CSD_CIF_QAMCAM61
_audit_creation_date 2020-12-18
_audit_creation_method CSD-ConQuest-V1
_database_code_CSD QAMCAM61
_database_code_depnum_ccdc_archive 'CCDC 1982587'
_chemical_formula_sum 'C6 H12 N4'
_chemical_formula_moiety
;
C6 H12 N4
;
_journal_coden_Cambridge 1220
_journal_volume 27
_journal_year 2020
_journal_page_first 1094
_journal_name_full 'Chem.-Eur.J. '
loop_
_publ_author_name
"P.A.Gunka"
"A.Olejniczak"
"S.Fanetti"
"R.Bini"
"I.E.Collings"
"V.Svitlyk"
"K.F.Dziubek"
_chemical_name_systematic
;
1,3,5,7-tetraazatricyclo[3.3.1.1^3,7^]decane
;
_chemical_name_common
;
hexamethylenetetramine; urotropine
;
_cell_volume    251.287
_exptl_crystal_colour 'colorless'
_exptl_crystal_density_diffrn 1.853
_exptl_crystal_description 'block'
_diffrn_ambient_temperature 293
_diffrn_ambient_pressure 11700000.0
_diffrn_radiation_probe x-ray
_diffrn_source synchrotron
#These two values have been output from a single CSD field.
_refine_ls_R_factor_gt 0.0399
_refine_ls_wR_factor_gt 0.0399
_symmetry_cell_setting cubic
_symmetry_space_group_name_H-M 'I -4 3 m'
_symmetry_Int_Tables_number 217
loop_
_symmetry_equiv_pos_site_id
_symmetry_equiv_pos_as_xyz
1 x,y,z
2 -x,-y,z
3 -x,y,-z
4 x,-y,-z
5 z,x,y
6 z,-x,-y
7 -z,-x,y
8 -z,x,-y
9 y,z,x
10 -y,z,-x
11 y,-z,-x
12 -y,-z,x
13 y,x,z
14 -y,-x,z
15 y,-x,-z
16 -y,x,-z
17 x,z,y
18 -x,z,-y
19 -x,-z,y
20 x,-z,-y
21 z,y,x
22 z,-y,-x
23 -z,y,-x
24 -z,-y,x
25 1/2+x,1/2+y,1/2+z
26 1/2-x,1/2-y,1/2+z
27 1/2-x,1/2+y,1/2-z
28 1/2+x,1/2-y,1/2-z
29 1/2+z,1/2+x,1/2+y
30 1/2+z,1/2-x,1/2-y
31 1/2-z,1/2-x,1/2+y
32 1/2-z,1/2+x,1/2-y
33 1/2+y,1/2+z,1/2+x
34 1/2-y,1/2+z,1/2-x
35 1/2+y,1/2-z,1/2-x
36 1/2-y,1/2-z,1/2+x
37 1/2+y,1/2+x,1/2+z
38 1/2-y,1/2-x,1/2+z
39 1/2+y,1/2-x,1/2-z
40 1/2-y,1/2+x,1/2-z
41 1/2+x,1/2+z,1/2+y
42 1/2-x,1/2+z,1/2-y
43 1/2-x,1/2-z,1/2+y
44 1/2+x,1/2-z,1/2-y
45 1/2+z,1/2+y,1/2+x
46 1/2+z,1/2-y,1/2-x
47 1/2-z,1/2+y,1/2-x
48 1/2-z,1/2-y,1/2+x
_cell_length_a 6.3104(4)
_cell_length_b 6.3104(4)
_cell_length_c 6.3104(4)
_cell_angle_alpha 90
_cell_angle_beta 90
_cell_angle_gamma 90
_cell_formula_units_Z 2
loop_
_atom_type_symbol
_atom_type_radius_bond
C 0.68
H 0.23
N 0.68
loop_
_atom_site_label
_atom_site_type_symbol
_atom_site_fract_x
_atom_site_fract_y
_atom_site_fract_z
N1 N -0.1359(3) -0.1359(3) -0.1359(3)
C1 C -0.2637(4) 0.00000 0.00000
H1 H -0.35428 0.08783 -0.08783
N1C N -0.1359(3) 0.1359(3) 0.1359(3)
H1C H -0.35428 -0.08783 0.08783
C1D C 0.0000(4) -0.26370 0.00000
H1D H -0.08783 -0.35428 0.08783
C1E C 0.0000(4) 0.26370 0.00000
H1E H -0.08783 0.35428 -0.08783
N1A N 0.1359(3) 0.1359(3) -0.1359(3)
H1F H 0.08783 0.35428 0.08783
N1B N 0.1359(3) -0.1359(3) 0.1359(3)
H1G H 0.08783 -0.35428 -0.08783
C1H C 0.0000(4) 0.00000 -0.26370
H1H H 0.08783 -0.08783 -0.35428
C1I C 0.0000(4) 0.00000 0.26370
H1I H -0.08783 -0.08783 0.35428
H1J H 0.08783 0.08783 0.35428
H1K H -0.08783 0.08783 -0.35428
C1A C 0.2637(4) 0.00000 0.00000
H1A H 0.35428 -0.08783 -0.08783
H1B H 0.35428 0.08783 0.08783
#END

data_CSD_CIF_QAMCAM62
_audit_creation_date 2020-12-18
_audit_creation_method CSD-ConQuest-V1
_database_code_CSD QAMCAM62
_database_code_depnum_ccdc_archive 'CCDC 1982557'
_chemical_formula_sum 'C6 H12 N4'
_chemical_formula_moiety
;
C6 H12 N4
;
_journal_coden_Cambridge 1220
_journal_volume 27
_journal_year 2020
_journal_page_first 1094
_journal_name_full 'Chem.-Eur.J. '
loop_
_publ_author_name
"P.A.Gunka"
"A.Olejniczak"
"S.Fanetti"
"R.Bini"
"I.E.Collings"
"V.Svitlyk"
"K.F.Dziubek"
_chemical_name_systematic
;
1,3,5,7-tetraazatricyclo[3.3.1.1^3,7^]decane
;
_chemical_name_common
;
hexamethylenetetramine; urotropine
;
_cell_volume    335.500
_exptl_crystal_colour 'colorless'
_exptl_crystal_density_diffrn 1.388
_exptl_crystal_description 'block'
_diffrn_ambient_temperature 293
_diffrn_ambient_pressure 340000.0
_diffrn_radiation_probe x-ray
_diffrn_source synchrotron
#These two values have been output from a single CSD field.
_refine_ls_R_factor_gt 0.0488
_refine_ls_wR_factor_gt 0.0488
_symmetry_cell_setting cubic
_symmetry_space_group_name_H-M 'I -4 3 m'
_symmetry_Int_Tables_number 217
loop_
_symmetry_equiv_pos_site_id
_symmetry_equiv_pos_as_xyz
1 x,y,z
2 -x,-y,z
3 -x,y,-z
4 x,-y,-z
5 z,x,y
6 z,-x,-y
7 -z,-x,y
8 -z,x,-y
9 y,z,x
10 -y,z,-x
11 y,-z,-x
12 -y,-z,x
13 y,x,z
14 -y,-x,z
15 y,-x,-z
16 -y,x,-z
17 x,z,y
18 -x,z,-y
19 -x,-z,y
20 x,-z,-y
21 z,y,x
22 z,-y,-x
23 -z,y,-x
24 -z,-y,x
25 1/2+x,1/2+y,1/2+z
26 1/2-x,1/2-y,1/2+z
27 1/2-x,1/2+y,1/2-z
28 1/2+x,1/2-y,1/2-z
29 1/2+z,1/2+x,1/2+y
30 1/2+z,1/2-x,1/2-y
31 1/2-z,1/2-x,1/2+y
32 1/2-z,1/2+x,1/2-y
33 1/2+y,1/2+z,1/2+x
34 1/2-y,1/2+z,1/2-x
35 1/2+y,1/2-z,1/2-x
36 1/2-y,1/2-z,1/2+x
37 1/2+y,1/2+x,1/2+z
38 1/2-y,1/2-x,1/2+z
39 1/2+y,1/2-x,1/2-z
40 1/2-y,1/2+x,1/2-z
41 1/2+x,1/2+z,1/2+y
42 1/2-x,1/2+z,1/2-y
43 1/2-x,1/2-z,1/2+y
44 1/2+x,1/2-z,1/2-y
45 1/2+z,1/2+y,1/2+x
46 1/2+z,1/2-y,1/2-x
47 1/2-z,1/2+y,1/2-x
48 1/2-z,1/2-y,1/2+x
_cell_length_a 6.94860(17)
_cell_length_b 6.94860(17)
_cell_length_c 6.94860(17)
_cell_angle_alpha 90
_cell_angle_beta 90
_cell_angle_gamma 90
_cell_formula_units_Z 2
loop_
_atom_type_symbol
_atom_type_radius_bond
C 0.68
H 0.23
N 0.68
loop_
_atom_site_label
_atom_site_type_symbol
_atom_site_fract_x
_atom_site_fract_y
_atom_site_fract_z
N1 N 0.1237(2) 0.1237(2) 0.1237(2)
C1 C 0.2403(4) 0.00000 0.00000
H1 H 0.32253 -0.07977 0.07977
N1C N 0.1237(2) -0.1237(2) -0.1237(2)
H1C H 0.32253 0.07977 -0.07977
C1D C 0.0000(4) 0.24030 0.00000
H1D H 0.07977 0.32253 -0.07977
C1E C 0.0000(4) -0.24030 0.00000
H1E H 0.07977 -0.32253 0.07977
N1A N -0.1237(2) -0.1237(2) 0.1237(2)
H1F H -0.07977 -0.32253 -0.07977
N1B N -0.1237(2) 0.1237(2) -0.1237(2)
H1G H -0.07977 0.32253 0.07977
C1H C 0.0000(4) 0.00000 0.24030
H1H H -0.07977 0.07977 0.32253
C1I C 0.0000(4) 0.00000 -0.24030
H1I H 0.07977 0.07977 -0.32253
H1J H -0.07977 -0.07977 -0.32253
H1K H 0.07977 -0.07977 0.32253
C1A C -0.2403(4) 0.00000 0.00000
H1A H -0.32253 0.07977 0.07977
H1B H -0.32253 -0.07977 -0.07977
#END

data_CSD_CIF_QAMCAM64
_audit_creation_date 2020-12-15
_audit_creation_method CSD-ConQuest-V1
_database_code_CSD QAMCAM64
_database_code_depnum_ccdc_archive 'CCDC 2005128'
_chemical_formula_sum 'C6 H12 N4'
_chemical_formula_moiety
;
C6 H12 N4
;
_journal_coden_Cambridge 1220
_journal_volume 27
_journal_year 2020
_journal_page_first 1094
_journal_name_full 'Chem.-Eur.J. '
loop_
_publ_author_name
"P.A.Gunka"
"A.Olejniczak"
"S.Fanetti"
"R.Bini"
"I.E.Collings"
"V.Svitlyk"
"K.F.Dziubek"
_chemical_name_systematic
;
1,3,5,7-tetraazatricyclo[3.3.1.1^3,7^]decane
;
_chemical_name_common
;
hexamethylenetetramine; urotropine
;
_cell_volume    246.846
_exptl_crystal_colour 'colorless'
_exptl_crystal_density_diffrn 1.886
_exptl_crystal_description 'block'
_diffrn_ambient_temperature 293
_diffrn_ambient_pressure 13130000.0
_diffrn_radiation_probe x-ray
_diffrn_source synchrotron
_refine_special_details
;
Hirshfeld Atom Refinement

;
#These two values have been output from a single CSD field.
_refine_ls_R_factor_gt 0.0229
_refine_ls_wR_factor_gt 0.0229
_symmetry_cell_setting cubic
_symmetry_space_group_name_H-M 'I -4 3 m'
_symmetry_Int_Tables_number 217
loop_
_symmetry_equiv_pos_site_id
_symmetry_equiv_pos_as_xyz
1 x,y,z
2 1/2+x,1/2+y,1/2+z
3 y,-x,-z
4 x,-y,-z
5 z,x,y
6 1/2+y,1/2-x,1/2-z
7 1/2+x,1/2-y,1/2-z
8 1/2+z,1/2+x,1/2+y
9 -x,-y,z
10 y,x,z
11 -z,y,-x
12 1/2-x,1/2-y,1/2+z
13 1/2+y,1/2+x,1/2+z
14 1/2-z,1/2+y,1/2-x
15 -y,x,-z
16 -x,y,-z
17 z,-x,-y
18 1/2-y,1/2+x,1/2-z
19 1/2-x,1/2+y,1/2-z
20 1/2+z,1/2-x,1/2-y
21 -y,-x,z
22 -z,-y,x
23 1/2-y,1/2-x,1/2+z
24 1/2-z,1/2-y,1/2+x
25 -z,x,-y
26 1/2-z,1/2+x,1/2-y
27 z,-y,-x
28 1/2+z,1/2-y,1/2-x
29 -z,-x,y
30 1/2-z,1/2-x,1/2+y
31 z,y,x
32 1/2+z,1/2+y,1/2+x
33 x,-z,-y
34 y,z,x
35 1/2+x,1/2-z,1/2-y
36 1/2+y,1/2+z,1/2+x
37 x,z,y
38 1/2+x,1/2+z,1/2+y
39 -x,z,-y
40 y,-z,-x
41 1/2-x,1/2+z,1/2-y
42 1/2+y,1/2-z,1/2-x
43 -x,-z,y
44 1/2-x,1/2-z,1/2+y
45 -y,z,-x
46 1/2-y,1/2+z,1/2-x
47 -y,-z,x
48 1/2-y,1/2-z,1/2+x
_cell_length_a 6.2730(1)
_cell_length_b 6.2730(1)
_cell_length_c 6.2730(1)
_cell_angle_alpha 90
_cell_angle_beta 90
_cell_angle_gamma 90
_cell_formula_units_Z 2
loop_
_atom_type_symbol
_atom_type_radius_bond
C 0.68
H 0.23
N 0.68
loop_
_atom_site_label
_atom_site_type_symbol
_atom_site_fract_x
_atom_site_fract_y
_atom_site_fract_z
N1 N 0.13618(13) 0.13618(13) 0.13618(13)
C1 C 0.26541(17) 0.00000 0.00000
H1 H 0.3639(18) 0.100(2) -0.100(2)
N1B N 0.13618(13) -0.13618(13) -0.13618(13)
C1B C 0.00000(17) -0.26541 0.00000
H1B H 0.1000(18) -0.3639(20) 0.100(2)
H1C H 0.3639(18) -0.100(2) 0.100(2)
C1D C 0.00000(17) 0.26541 0.00000
H1D H -0.1000(18) 0.3639(20) 0.100(2)
N1H N -0.13618(13) -0.13618(13) 0.13618(13)
C1H C -0.26541(17) 0.00000 0.00000
H1H H -0.3639(18) -0.100(2) -0.100(2)
H1I H 0.1000(18) 0.3639(20) -0.100(2)
N1J N -0.13618(13) 0.13618(13) -0.13618(13)
C1J C 0.00000(17) 0.00000 -0.26541
H1J H 0.1000(18) 0.100(2) -0.3639(20)
H1O H -0.3639(18) 0.100(2) 0.100(2)
H1P H -0.1000(18) -0.3639(20) -0.100(2)
C1U C 0.00000(17) 0.00000 0.26541
H1U H 0.1000(18) -0.100(2) 0.3639(20)
H1Z H -0.1000(18) -0.100(2) -0.3639(20)
H1DA H -0.1000(18) 0.100(2) 0.3639(20)
#END

data_CSD_CIF_RELQAD
_audit_creation_date 2017-10-12
_audit_creation_method CSD-ConQuest-V1
_database_code_CSD RELQAD
_database_code_depnum_ccdc_archive 'CCDC 1579587'
_chemical_formula_sum 'C12 H36 Ge4 N4 Si4'
_chemical_formula_moiety
;
C12 H36 Ge4 N4 Si4
;
_journal_coden_Cambridge 1078
_journal_year 2017
_journal_name_full 'CSD Communication(Private Communication) '
loop_
_publ_author_name
"M.Rusek"
"D.Blaser"
"C.Wolper"
"S.Schulz"
_chemical_name_systematic
;
tetrakis(\m~3~-1,1,1-trimethylsilanimido)-tetra-germanium
;
_cell_volume   1430.940
_exptl_crystal_colour 'colorless'
_exptl_crystal_density_diffrn 1.483
_exptl_special_details
;
I-43m polymorph

;
_exptl_crystal_description 'block'
_diffrn_ambient_temperature 180
#These two values have been output from a single CSD field.
_refine_ls_R_factor_gt 0.0231
_refine_ls_wR_factor_gt 0.0231
_symmetry_cell_setting cubic
_symmetry_space_group_name_H-M 'I -4 3 m'
_symmetry_Int_Tables_number 217
loop_
_symmetry_equiv_pos_site_id
_symmetry_equiv_pos_as_xyz
1 x,y,z
2 -x,-y,z
3 -x,y,-z
4 x,-y,-z
5 z,x,y
6 z,-x,-y
7 -z,-x,y
8 -z,x,-y
9 y,z,x
10 -y,z,-x
11 y,-z,-x
12 -y,-z,x
13 y,x,z
14 -y,-x,z
15 y,-x,-z
16 -y,x,-z
17 x,z,y
18 -x,z,-y
19 -x,-z,y
20 x,-z,-y
21 z,y,x
22 z,-y,-x
23 -z,y,-x
24 -z,-y,x
25 1/2+x,1/2+y,1/2+z
26 1/2-x,1/2-y,1/2+z
27 1/2-x,1/2+y,1/2-z
28 1/2+x,1/2-y,1/2-z
29 1/2+z,1/2+x,1/2+y
30 1/2+z,1/2-x,1/2-y
31 1/2-z,1/2-x,1/2+y
32 1/2-z,1/2+x,1/2-y
33 1/2+y,1/2+z,1/2+x
34 1/2-y,1/2+z,1/2-x
35 1/2+y,1/2-z,1/2-x
36 1/2-y,1/2-z,1/2+x
37 1/2+y,1/2+x,1/2+z
38 1/2-y,1/2-x,1/2+z
39 1/2+y,1/2-x,1/2-z
40 1/2-y,1/2+x,1/2-z
41 1/2+x,1/2+z,1/2+y
42 1/2-x,1/2+z,1/2-y
43 1/2-x,1/2-z,1/2+y
44 1/2+x,1/2-z,1/2-y
45 1/2+z,1/2+y,1/2+x
46 1/2+z,1/2-y,1/2-x
47 1/2-z,1/2+y,1/2-x
48 1/2-z,1/2-y,1/2+x
_cell_length_a 11.2687(8)
_cell_length_b 11.2687(8)
_cell_length_c 11.2687(8)
_cell_angle_alpha 90
_cell_angle_beta 90
_cell_angle_gamma 90
_cell_formula_units_Z 2
loop_
_atom_type_symbol
_atom_type_radius_bond
C 0.68
H 0.23
Ge 1.17
N 0.68
Si 1.20
loop_
_atom_site_label
_atom_site_type_symbol
_atom_site_fract_x
_atom_site_fract_y
_atom_site_fract_z
Ge1 Ge 0.09337(4) 0.09337(4) 0.09337(4)
Si1 Si -0.17393(12) 0.17393(12) 0.17393(12)
N1 N -0.0846(3) 0.0846(3) 0.0846(3)
C1 C -0.3326(5) 0.1400(4) 0.1400(4)
H1 H -0.34870 0.15730 0.05980
H2 H -0.38250 0.18790 0.18790
C1F C -0.1400(5) 0.3326(4) 0.1400(4)
H1F H -0.05980 0.34870 0.15730
H2F H -0.18790 0.38250 0.18790
C1I C -0.1400(5) 0.1400(4) 0.3326(4)
H1I H -0.15730 0.05980 0.34870
H2I H -0.18790 0.18790 0.38250
H1M H -0.15730 0.34870 0.05980
H1P H -0.34870 0.05980 0.15730
H1V H -0.05980 0.15730 0.34870
Ge1A Ge -0.09337(4) -0.09337(4) 0.09337(4)
Si1A Si 0.17393(12) -0.17393(12) 0.17393(12)
N1A N 0.0846(3) -0.0846(3) 0.0846(3)
C1A C 0.3326(5) -0.1400(4) 0.1400(4)
H1A H 0.34870 -0.15730 0.05980
H2A H 0.38250 -0.18790 0.18790
C1D C 0.1400(5) -0.3326(4) 0.1400(4)
H1D H 0.05980 -0.34870 0.15730
H2D H 0.18790 -0.38250 0.18790
C1J C 0.1400(5) -0.1400(4) 0.3326(4)
H1J H 0.15730 -0.05980 0.34870
H2J H 0.18790 -0.18790 0.38250
H1L H 0.15730 -0.34870 0.05980
H1R H 0.34870 -0.05980 0.15730
H1U H 0.05980 -0.15730 0.34870
Ge1B Ge -0.09337(4) 0.09337(4) -0.09337(4)
Si1B Si 0.17393(12) 0.17393(12) -0.17393(12)
N1B N 0.0846(3) 0.0846(3) -0.0846(3)
C1B C 0.3326(5) 0.1400(4) -0.1400(4)
H1B H 0.34870 0.15730 -0.05980
H2B H 0.38250 0.18790 -0.18790
C1E C 0.1400(5) 0.3326(4) -0.1400(4)
H1E H 0.05980 0.34870 -0.15730
H2E H 0.18790 0.38250 -0.18790
C1H C 0.1400(5) 0.1400(4) -0.3326(4)
H1H H 0.15730 0.05980 -0.34870
H2H H 0.18790 0.18790 -0.38250
H1N H 0.15730 0.34870 -0.05980
H1Q H 0.34870 0.05980 -0.15730
H1T H 0.05980 0.15730 -0.34870
Ge1C Ge 0.09337(4) -0.09337(4) -0.09337(4)
Si1C Si -0.17393(12) -0.17393(12) -0.17393(12)
N1C N -0.0846(3) -0.0846(3) -0.0846(3)
C1C C -0.3326(5) -0.1400(4) -0.1400(4)
H1C H -0.34870 -0.15730 -0.05980
H2C H -0.38250 -0.18790 -0.18790
C1G C -0.1400(5) -0.3326(4) -0.1400(4)
H1G H -0.05980 -0.34870 -0.15730
H2G H -0.18790 -0.38250 -0.18790
C1K C -0.1400(5) -0.1400(4) -0.3326(4)
H1K H -0.15730 -0.05980 -0.34870
H2K H -0.18790 -0.18790 -0.38250
H1O H -0.15730 -0.34870 -0.05980
H1S H -0.34870 -0.05980 -0.15730
H1W H -0.05980 -0.15730 -0.34870
#END

data_CSD_CIF_YEYQAU
_audit_creation_date 2002-03-22
_audit_creation_method CSD-ConQuest-V1
_database_code_CSD YEYQAU
_database_code_depnum_ccdc_archive 'CCDC 155020'
_chemical_formula_sum 'C12 O12 Ru4 Se4'
_chemical_formula_moiety
;
C12 O12 Ru4 Se4
;
_journal_coden_Cambridge 1290
_journal_year 2001
_journal_page_first 2489
_journal_name_full 'Eur.J.Inorg.Chem. '
loop_
_publ_author_name
"E.Rupp"
"F.Nowak"
"S.Fiechter"
"G.Reck"
"V.Eyert"
"N.Alonso-Vante"
"H.Tributsch"
_chemical_name_systematic
;
tetrakis((\m~3~-Selenido)-tricarbonyl-ruthenium)
;
_cell_volume   1095.275
_exptl_crystal_colour 'orange-red'
_exptl_crystal_density_diffrn 3.2
_exptl_crystal_description 'prismatic'
_diffrn_ambient_temperature 293
#These two values have been output from a single CSD field.
_refine_ls_R_factor_gt 0.015
_refine_ls_wR_factor_gt 0.015
_symmetry_cell_setting cubic
_symmetry_space_group_name_H-M 'I -4 3 m'
_symmetry_Int_Tables_number 217
loop_
_symmetry_equiv_pos_site_id
_symmetry_equiv_pos_as_xyz
1 x,y,z
2 y,-x,-z
3 x,-y,-z
4 z,x,y
5 -x,-y,z
6 -y,-x,z
7 x,-z,-y
8 -y,x,-z
9 -x,y,-z
10 -z,-x,y
11 y,x,z
12 -x,z,-y
13 z,-x,-y
14 x,z,y
15 -z,x,-y
16 -x,-z,y
17 y,z,x
18 z,-y,-x
19 -z,-y,x
20 y,-z,-x
21 z,y,x
22 -y,z,-x
23 -y,-z,x
24 -z,y,-x
25 1/2+x,1/2+y,1/2+z
26 1/2+y,1/2-x,1/2-z
27 1/2+x,1/2-y,1/2-z
28 1/2+z,1/2+x,1/2+y
29 1/2-x,1/2-y,1/2+z
30 1/2-y,1/2-x,1/2+z
31 1/2+x,1/2-z,1/2-y
32 1/2-y,1/2+x,1/2-z
33 1/2-x,1/2+y,1/2-z
34 1/2-z,1/2-x,1/2+y
35 1/2+y,1/2+x,1/2+z
36 1/2-x,1/2+z,1/2-y
37 1/2+z,1/2-x,1/2-y
38 1/2+x,1/2+z,1/2+y
39 1/2-z,1/2+x,1/2-y
40 1/2-x,1/2-z,1/2+y
41 1/2+y,1/2+z,1/2+x
42 1/2+z,1/2-y,1/2-x
43 1/2-z,1/2-y,1/2+x
44 1/2+y,1/2-z,1/2-x
45 1/2+z,1/2+y,1/2+x
46 1/2-y,1/2+z,1/2-x
47 1/2-y,1/2-z,1/2+x
48 1/2-z,1/2+y,1/2-x
_cell_length_a 10.308(1)
_cell_length_b 10.308(1)
_cell_length_c 10.308(1)
_cell_angle_alpha 90
_cell_angle_beta 90
_cell_angle_gamma 90
_cell_formula_units_Z 2
loop_
_atom_type_symbol
_atom_type_radius_bond
C 0.68
O 0.68
Ru 1.40
Se 1.22
loop_
_atom_site_label
_atom_site_type_symbol
_atom_site_fract_x
_atom_site_fract_y
_atom_site_fract_z
Ru1 Ru 0.12958(4) 0.12958(4) 0.87042(4)
Se1 Se 0.11836(7) 0.11836(7) 1.11836(7)
C1 C 0.1260(5) 0.1260(5) 0.6833(6)
O1 O 0.1229(5) 0.1229(5) 0.5741(5)
Ru1G Ru -0.12958(4) 0.12958(4) 1.12958(4)
Se1G Se -0.11836(7) 0.11836(7) 0.88164(7)
Ru1D Ru -0.12958(4) -0.12958(4) 0.87042(4)
Se1D Se -0.11836(7) -0.11836(7) 1.11836(7)
Ru1A Ru 0.12958(4) -0.12958(4) 1.12958(4)
Se1A Se 0.11836(7) -0.11836(7) 0.88164(7)
C1F C 0.1260(5) 0.3167(5) 0.8740(6)
O1F O 0.1229(5) 0.4259(5) 0.8771(5)
C1N C 0.3167(5) 0.1260(5) 0.8740(6)
O1N O 0.4259(5) 0.1229(5) 0.8771(5)
C1D C -0.1260(5) -0.1260(5) 0.6833(6)
O1D O -0.1229(5) -0.1229(5) 0.5741(5)
C1K C -0.1260(5) -0.3167(5) 0.8740(6)
O1K O -0.1229(5) -0.4259(5) 0.8771(5)
C1L C -0.3167(5) -0.1260(5) 0.8740(6)
O1L O -0.4259(5) -0.1229(5) 0.8771(5)
C1A C 0.1260(5) -0.1260(5) 1.3167(6)
O1A O 0.1229(5) -0.1229(5) 1.4259(5)
C1I C 0.3167(5) -0.1260(5) 1.1260(6)
O1I O 0.4259(5) -0.1229(5) 1.1229(5)
C1M C 0.1260(5) -0.3167(5) 1.1260(6)
O1M O 0.1229(5) -0.4259(5) 1.1229(5)
C1G C -0.1260(5) 0.1260(5) 1.3167(6)
O1G O -0.1229(5) 0.1229(5) 1.4259(5)
C1C C -0.3167(5) 0.1260(5) 1.1260(6)
O1C O -0.4259(5) 0.1229(5) 1.1229(5)
C1O C -0.1260(5) 0.3167(5) 1.1260(6)
O1O O -0.1229(5) 0.4259(5) 1.1229(5)
#END
