
#######################################################################
#
#                 Cambridge Crystallographic Data Centre
#                                CCDC
#
#######################################################################
#
# If this CIF has been generated from an entry in the Cambridge
# Structural Database, then it will include bibliographic, chemical,
# crystal, experimental, refinement or atomic coordinate data resulting
# from the CCDC's data processing and validation procedures.
#
#######################################################################

data_CSD_CIF_AFUVAZ
_audit_creation_date 2009-01-29
_audit_creation_method CSD-ConQuest-V1
_database_code_CSD AFUVAZ
_database_code_depnum_ccdc_archive 'CCDC 702112'
_chemical_formula_sum 'C26 H29 N3 O3'
_chemical_formula_moiety
;
C26 H29 N3 O3
;
_journal_coden_Cambridge 1336
_journal_volume 10
_journal_year 2008
_journal_page_first 2841
_journal_name_full 'Org.Lett. '
loop_
_publ_author_name
"P.Deaudelin"
"W.D.Lubell"
_chemical_name_systematic
;
(3S,5R)-Methyl 
4H-1-benzyl-3-((1S)-1-methylpropyl)-5-phenyl-6H-pyrrolo(3,2-e)(1,4)diazepin-2-
one-7-carboxylate
;
_cell_volume  16427.937
_exptl_crystal_colour 'colorless'
_exptl_crystal_density_diffrn 1.047
_exptl_crystal_description 'needle'
_diffrn_ambient_temperature 100
#These two values have been output from a single CSD field.
_refine_ls_R_factor_gt 0.0347
_refine_ls_wR_factor_gt 0.0347
_symmetry_cell_setting cubic
_symmetry_space_group_name_H-M 'I 2 3'
_symmetry_Int_Tables_number 197
loop_
_symmetry_equiv_pos_site_id
_symmetry_equiv_pos_as_xyz
1 x,y,z
2 -x,-y,z
3 -x,y,-z
4 x,-y,-z
5 z,x,y
6 z,-x,-y
7 -z,-x,y
8 -z,x,-y
9 y,z,x
10 -y,z,-x
11 y,-z,-x
12 -y,-z,x
13 1/2+x,1/2+y,1/2+z
14 1/2-x,1/2-y,1/2+z
15 1/2-x,1/2+y,1/2-z
16 1/2+x,1/2-y,1/2-z
17 1/2+z,1/2+x,1/2+y
18 1/2+z,1/2-x,1/2-y
19 1/2-z,1/2-x,1/2+y
20 1/2-z,1/2+x,1/2-y
21 1/2+y,1/2+z,1/2+x
22 1/2-y,1/2+z,1/2-x
23 1/2+y,1/2-z,1/2-x
24 1/2-y,1/2-z,1/2+x
_cell_length_a 25.4211(2)
_cell_length_b 25.4211(2)
_cell_length_c 25.4211(2)
_cell_angle_alpha 90
_cell_angle_beta 90
_cell_angle_gamma 90
_cell_formula_units_Z 24
loop_
_atom_type_symbol
_atom_type_radius_bond
C 0.68
H 0.23
N 0.68
O 0.68
loop_
_atom_site_label
_atom_site_type_symbol
_atom_site_fract_x
_atom_site_fract_y
_atom_site_fract_z
N1 N 0.42374(6) 0.15243(5) 0.17049(5)
C1 C 0.47343(7) 0.13687(7) 0.15828(7)
C2 C 0.49624(7) 0.15746(6) 0.10652(6)
H1 H 0.46840 0.15380 0.07900
N2 N 0.50744(6) 0.21392(5) 0.11280(6)
H2 H 0.5187(6) 0.2225(6) 0.1441(7)
C3 C 0.46484(6) 0.24924(6) 0.09577(7)
H3 H 0.46740 0.25270 0.05670
C4 C 0.41064(7) 0.22814(7) 0.10809(7)
C5 C 0.39297(7) 0.18663(7) 0.13892(7)
C6 C 0.33796(7) 0.18419(7) 0.13468(7)
H4 H 0.31530 0.15990 0.15180
C7 C 0.32319(7) 0.22386(7) 0.10074(7)
N3 N 0.36748(6) 0.24959(6) 0.08494(6)
H5 H 0.3678(7) 0.2744(7) 0.0604(7)
C8 C 0.39984(7) 0.13517(7) 0.22049(7)
H6 H 0.42330 0.10900 0.23730
H7 H 0.36600 0.11750 0.21290
C9 C 0.39021(8) 0.17956(8) 0.25841(7)
C10 C 0.42935(9) 0.21642(8) 0.26874(8)
H8 H 0.46190 0.21450 0.25050
C11 C 0.42137(10) 0.25569(9) 0.30519(8)
H9 H 0.44840 0.28060 0.31210
C12 C 0.37384(10) 0.25896(9) 0.33186(8)
H10 H 0.36830 0.28560 0.35740
C13 C 0.33505(10) 0.22320(9) 0.32084(9)
H11 H 0.30220 0.22560 0.33840
C14 C 0.34310(8) 0.18409(8) 0.28483(8)
H12 H 0.31570 0.15960 0.27790
O1 O 0.49951(5) 0.10952(4) 0.18887(4)
C15 C 0.54410(7) 0.12549(7) 0.08837(7)
H13 H 0.57060 0.12490 0.11740
C16 C 0.52706(7) 0.06911(7) 0.07686(8)
H14 H 0.50010 0.06920 0.04930
H15 H 0.51270 0.05320 0.10890
H16 H 0.55750 0.04870 0.06500
C17 C 0.56920(7) 0.15125(7) 0.03980(7)
H17 H 0.54400 0.14900 0.01020
H18 H 0.57510 0.18900 0.04740
C18 C 0.62146(8) 0.12677(8) 0.02251(8)
H19 H 0.64680 0.12890 0.05140
H20 H 0.63510 0.14590 -0.00800
H21 H 0.61580 0.08980 0.01300
C19 C 0.47579(6) 0.30301(7) 0.11909(7)
C20 C 0.45182(8) 0.32032(8) 0.16394(8)
H22 H 0.42550 0.29930 0.18000
C21 C 0.46548(8) 0.36842(8) 0.18650(8)
H23 H 0.44790 0.38030 0.21730
C22 C 0.50434(8) 0.39860(7) 0.16425(8)
H24 H 0.51430 0.43110 0.17990
C23 C 0.52885(8) 0.38148(7) 0.11905(8)
H25 H 0.55570 0.40230 0.10340
C24 C 0.51442(7) 0.33385(7) 0.09633(7)
H26 H 0.53120 0.32240 0.06500
C25 C 0.27206(7) 0.23969(7) 0.08182(7)
O2 O 0.26421(5) 0.27642(5) 0.05220(5)
C26 C 0.18070(7) 0.22268(9) 0.08250(8)
H27 H 0.17680 0.26100 0.08190
H28 H 0.15450 0.20740 0.10640
H29 H 0.17540 0.20870 0.04700
O3 O 0.23292(5) 0.20921(5) 0.10050(5)
#END

data_CSD_CIF_AHIWUM
_audit_creation_date 2020-04-30
_audit_creation_method CSD-ConQuest-V1
_database_code_CSD AHIWUM
_database_code_depnum_ccdc_archive 'CCDC 1978775'
_chemical_formula_sum 'C144 H270 Co1 Na1 O252 P3 W36'
_chemical_formula_moiety
;
3(C48 H80 O40),3(H2 O40 P1 W12 1-),H12 Co1 O6 2+,6(H2 O1),Na1 1+
;
_journal_coden_Cambridge 1542
_journal_volume 12
_journal_year 2020
_journal_page_first 10166
_journal_name_full 'Nanoscale '
loop_
_publ_author_name
"Zhan-Guo Jiang"
"Wei-Tao Mao"
"Dan-Ping Huang"
"Yu Wang"
"Xiao-Juan Wang"
"Cai-Hong Zhan"
_chemical_name_systematic
;
tris(\g-cyclodextrin) hexa-aqua-cobalt(ii) sodium 
tris((\m-phosphato)-bis(\m-hydroxo)-docsakis(\m-oxo)-dodecaoxo-dodeca-tungsten
) hexahydrate
;
_cell_volume  72859.175
_exptl_crystal_colour 'pink'
_exptl_special_details
;
We calculate 29 percent void space in the structure

;
_exptl_crystal_description 'block'
_diffrn_ambient_temperature 120.0
#These two values have been output from a single CSD field.
_refine_ls_R_factor_gt 0.0374
_refine_ls_wR_factor_gt 0.0374
_symmetry_cell_setting cubic
_symmetry_space_group_name_H-M 'I 2 3'
_symmetry_Int_Tables_number 197
loop_
_symmetry_equiv_pos_site_id
_symmetry_equiv_pos_as_xyz
1 x,y,z
2 z,x,y
3 y,z,x
4 -y,-z,x
5 x,-y,-z
6 -z,x,-y
7 z,-x,-y
8 -x,y,-z
9 -z,-x,y
10 y,-z,-x
11 -y,z,-x
12 -x,-y,z
13 1/2+x,1/2+y,1/2+z
14 1/2+z,1/2+x,1/2+y
15 1/2+y,1/2+z,1/2+x
16 1/2-y,1/2-z,1/2+x
17 1/2+x,1/2-y,1/2-z
18 1/2-z,1/2+x,1/2-y
19 1/2+z,1/2-x,1/2-y
20 1/2-x,1/2+y,1/2-z
21 1/2-z,1/2-x,1/2+y
22 1/2+y,1/2-z,1/2-x
23 1/2-y,1/2+z,1/2-x
24 1/2-x,1/2-y,1/2+z
_cell_length_a 41.7665(8)
_cell_length_b 41.7665(8)
_cell_length_c 41.7665(8)
_cell_angle_alpha 90
_cell_angle_beta 90
_cell_angle_gamma 90
_cell_formula_units_Z 8
loop_
_atom_type_symbol
_atom_type_radius_bond
C 0.68
H 0.23
Co 1.26
Na 1.66
O 0.68
P 1.05
W 1.62
loop_
_atom_site_label
_atom_site_type_symbol
_atom_site_fract_x
_atom_site_fract_y
_atom_site_fract_z
W1 W 0.23790(2) 0.26202(2) 0.58720(2)
W2 W 0.19711(2) 0.32217(2) 0.53758(2)
W3 W 0.19247(2) 0.19457(2) 0.46425(2)
W4 W 0.28502(2) 0.31705(2) 0.53697(2)
W5 W 0.32248(2) 0.25390(2) 0.49978(2)
W6 W 0.27460(2) 0.19000(2) 0.46369(2)
W7 W 0.15214(2) 0.26158(2) 0.50380(2)
W8 W 0.28270(2) 0.31042(2) 0.45499(2)
W9 W 0.19488(2) 0.20143(2) 0.55189(2)
W10 W 0.19473(2) 0.31331(2) 0.45575(2)
W11 W 0.27697(2) 0.19917(2) 0.55100(2)
W12 W 0.23610(2) 0.24599(2) 0.41732(2)
P1 P 0.23704(8) 0.25614(7) 0.50205(7)
O1 O 0.1670(3) 0.2341(3) 0.5364(3)
O2 O 0.1699(3) 0.1755(3) 0.5701(3)
O3 O 0.2055(3) 0.2298(3) 0.5873(3)
O4 O 0.3616(2) 0.2450(3) 0.4995(3)
O5 O 0.2357(3) 0.2480(3) 0.3771(2)
O6 O 0.1583(3) 0.2976(3) 0.5317(2)
O7 O 0.3029(3) 0.3469(3) 0.5577(3)
O8 O 0.3197(3) 0.2848(3) 0.4665(3)
O9 O 0.2688(3) 0.2272(3) 0.5859(3)
O10 O 0.2365(2) 0.2379(2) 0.5340(2)
O11 O 0.2061(3) 0.2774(3) 0.4309(3)
O12 O 0.2656(3) 0.2115(3) 0.4245(3)
O13 O 0.2090(3) 0.2925(3) 0.5701(3)
O14 O 0.2679(3) 0.2750(3) 0.4298(3)
O15 O 0.1914(3) 0.3371(3) 0.4953(3)
O16 O 0.1654(3) 0.2293(3) 0.4751(3)
O17 O 0.2678(2) 0.2755(2) 0.4998(2)
O18 O 0.2412(3) 0.3302(3) 0.5344(3)
O19 O 0.2907(3) 0.3332(3) 0.4936(3)
O20 O 0.3055(3) 0.2222(3) 0.4724(2)
O21 O 0.3010(3) 0.1710(3) 0.5671(3)
O22 O 0.2729(3) 0.1833(2) 0.5084(2)
O23 O 0.2360(3) 0.2324(3) 0.4743(2)
O24 O 0.3213(3) 0.2898(3) 0.5283(3)
O25 O 0.1789(3) 0.3392(3) 0.4288(3)
O26 O 0.1834(3) 0.3538(3) 0.5586(3)
O27 O 0.2029(3) 0.2152(3) 0.4245(3)
O28 O 0.2081(2) 0.2785(2) 0.5007(3)
O29 O 0.2353(3) 0.1808(3) 0.5599(3)
O30 O 0.2981(3) 0.1591(3) 0.4517(3)
O31 O 0.2391(3) 0.3229(3) 0.4565(3)
O32 O 0.2323(3) 0.1717(3) 0.4605(3)
O33 O 0.1118(3) 0.2578(3) 0.5056(3)
O34 O 0.1569(3) 0.2912(3) 0.4692(3)
O35 O 0.3068(3) 0.2288(3) 0.5341(2)
O36 O 0.1953(3) 0.1874(3) 0.5090(3)
O37 O 0.1666(3) 0.1661(3) 0.4527(3)
O38 O 0.2390(4) 0.2712(3) 0.6267(3)
O39 O 0.2707(3) 0.2888(3) 0.5688(3)
O40 O 0.2992(3) 0.3349(3) 0.4274(4)
Co1 Co 0.25487(5) 0.25487(5) 0.25487(5)
O41 O 0.2474(3) 0.2625(3) 0.3043(3)
O42 O 0.2651(3) 0.2445(4) 0.2065(3)
O43 O 0.2821(3) 0.1573(3) 0.3735(3)
O44 O 0.3222(4) 0.1464(5) 0.6581(4)
O45 O 0.1882(3) 0.1261(4) 0.3938(4)
O46 O 0.3553(4) 0.3300(4) 0.6101(5)
O47 O 0.2256(4) 0.0988(3) 0.4411(4)
O48 O 0.2726(3) 0.1470(4) 0.6331(3)
O49 O 0.4382(3) 0.3052(4) 0.5338(4)
O50 O 0.3407(3) 0.2294(3) 0.6334(3)
O51 O 0.4253(3) 0.2778(4) 0.4176(4)
O52 O 0.3544(3) 0.2411(4) 0.3802(3)
O53 O 0.2566(4) 0.0714(4) 0.5902(4)
O54 O 0.2243(4) 0.0943(3) 0.5509(4)
O55 O 0.2247(3) 0.1605(4) 0.3442(4)
O56 O 0.3949(3) 0.2408(3) 0.6272(3)
O57 O 0.3896(3) 0.2994(3) 0.5616(3)
O58 O 0.3961(3) 0.3038(3) 0.4563(3)
O59 O 0.3221(5) 0.0770(6) 0.5782(5)
O60 O 0.2076(4) 0.1398(5) 0.6443(4)
O61 O 0.3748(4) 0.3493(4) 0.4127(4)
O62 O 0.4770(4) 0.2934(5) 0.4780(4)
O63 O 0.2736(4) 0.2058(4) 0.3278(3)
O64 O 0.2468(4) 0.1838(6) 0.6805(4)
O65 O 0.3642(3) 0.1883(4) 0.3644(4)
O66 O 0.3226(4) 0.2553(4) 0.3232(4)
O67 O 0.1755(4) 0.1003(4) 0.5946(5)
O68 O 0.3775(4) 0.1354(5) 0.6207(8)
O69 O 0.1597(5) 0.0995(4) 0.4554(5)
O70 O 0.3525(4) 0.1203(4) 0.3680(6)
O71 O 0.3223(6) 0.0708(5) 0.4186(8)
O72 O 0.3750(4) 0.3639(4) 0.5527(4)
O73 O 0.3742(5) 0.3624(4) 0.4831(4)
O74 O 0.3277(5) 0.2873(6) 0.6588(5)
O75 O 0.4519(5) 0.2485(6) 0.5977(6)
O76 O 0.1644(4) 0.1061(5) 0.5236(5)
O77 O 0.3461(4) 0.3056(4) 0.3661(3)
O78 O 0.4400(5) 0.2130(5) 0.4302(5)
O79 O 0.2527(7) 0.0196(4) 0.5266(6)
O80 O 0.2822(4) 0.1023(4) 0.3733(5)
O81 O 0.2323(6) 0.0530(4) 0.4720(5)
O82 O 0.2893(4) 0.2366(6) 0.6756(4)
C1 C 0.3583(6) 0.2826(5) 0.6438(5)
H1 H 0.37480 0.29430 0.65670
C2 C 0.3597(5) 0.2952(5) 0.6094(5)
H2 H 0.34170 0.28550 0.59700
C3 C 0.3903(4) 0.2871(5) 0.5931(4)
H3 H 0.40830 0.29740 0.60500
C4 C 0.3945(5) 0.2509(5) 0.5946(5)
H4 H 0.37620 0.24030 0.58330
C5 C 0.4260(5) 0.2379(7) 0.5811(7)
H5 H 0.42550 0.21420 0.58160
H6 H 0.42810 0.24460 0.55840
C6 C 0.3663(4) 0.2470(5) 0.6447(4)
H7 H 0.37010 0.24090 0.66760
C7 C 0.4145(5) 0.3197(6) 0.5532(5)
H8 H 0.42480 0.32830 0.57310
C8 C 0.3987(6) 0.3479(7) 0.5345(7)
H9 H 0.41600 0.36380 0.52970
C9 C 0.3849(6) 0.3364(5) 0.5023(6)
H10 H 0.36660 0.32160 0.50640
C10 C 0.4118(5) 0.3180(5) 0.4852(5)
H11 H 0.42920 0.33310 0.47850
C11 C 0.4258(4) 0.2910(5) 0.5053(5)
H12 H 0.40810 0.27590 0.51130
C12 C 0.4530(5) 0.2716(6) 0.4888(5)
H13 H 0.46240 0.25610 0.50410
H14 H 0.44430 0.25950 0.47030
C13 C 0.4131(4) 0.3077(5) 0.4275(4)
H15 H 0.43090 0.32350 0.43020
C14 C 0.3885(5) 0.3199(5) 0.4029(4)
H16 H 0.40100 0.32480 0.38300
C15 C 0.3636(4) 0.2958(5) 0.3930(5)
H17 H 0.34840 0.29280 0.41120
C16 C 0.3009(4) 0.2066(5) 0.3491(4)
H18 H 0.29520 0.21930 0.36860
C17 C 0.3087(5) 0.1718(5) 0.3592(4)
H19 H 0.31480 0.15940 0.33970
C18 C 0.3277(5) 0.2225(5) 0.3324(4)
H20 H 0.33230 0.21000 0.31240
C19 C 0.3492(6) 0.1416(7) 0.3925(7)
H21 H 0.37000 0.14370 0.40370
H22 H 0.33340 0.13320 0.40800
C20 C 0.3384(4) 0.1746(5) 0.3814(4)
H23 H 0.33310 0.18810 0.40040
C21 C 0.2344(7) 0.0980(5) 0.4095(6)
H24 H 0.22550 0.07830 0.39910
C22 C 0.2212(5) 0.1277(5) 0.3931(5)
H25 H 0.22790 0.14680 0.40590
C23 C 0.2112(8) 0.0716(7) 0.4539(8)
H26 H 0.20370 0.05810 0.43560
C24 C 0.1831(9) 0.0803(6) 0.4723(7)
H27 H 0.17220 0.05990 0.47820
C25 C 0.1907(7) 0.0994(6) 0.5067(8)
H28 H 0.20190 0.12000 0.50160
C26 C 0.2434(6) 0.0701(5) 0.5012(7)
H29 H 0.25490 0.09030 0.49530
C27 C 0.2048(6) 0.0936(6) 0.6045(7)
H30 H 0.20280 0.07930 0.62350
C28 C 0.2223(5) 0.1253(6) 0.6161(6)
H31 H 0.22210 0.14120 0.59820
C29 C 0.2572(5) 0.1177(5) 0.6249(5)
H32 H 0.25740 0.10320 0.64390
C30 C 0.2732(5) 0.1011(5) 0.5978(5)
H33 H 0.27230 0.11540 0.57860
C31 C 0.3078(5) 0.0929(8) 0.6044(6)
H34 H 0.31980 0.11290 0.60900
H35 H 0.30900 0.07910 0.62360
C32 C 0.2656(12) 0.0471(9) 0.5153(10)
H36 H 0.28800 0.05110 0.51640
C33 C 0.2895(6) 0.1474(7) 0.6610(5)
H37 H 0.28210 0.12950 0.67500
C34 C 0.2807(6) 0.1793(9) 0.6764(6)
H38 H 0.29050 0.17940 0.69820
C35 C 0.2942(5) 0.2085(7) 0.6585(5)
H39 H 0.28330 0.21030 0.63720
C36 C 0.2141(8) 0.0775(5) 0.5228(8)
H40 H 0.20320 0.05710 0.52890
C37 C 0.2720(6) 0.0974(5) 0.4077(7)
H41 H 0.28060 0.11540 0.42100
C38 C 0.2870(7) 0.0694(6) 0.4166(8)
H42 H 0.28110 0.05250 0.40110
H43 H 0.27860 0.06290 0.43780
C39 C 0.2354(6) 0.1316(6) 0.3581(5)
H44 H 0.22720 0.11350 0.34480
C40 C 0.4023(6) 0.2531(6) 0.4131(5)
H45 H 0.38970 0.24990 0.43320
C41 C 0.3800(4) 0.2637(5) 0.3860(4)
H46 H 0.39280 0.26590 0.36590
C42 C 0.3590(5) 0.2213(7) 0.3543(5)
H47 H 0.37790 0.22890 0.34170
C43 C 0.3291(5) 0.2026(6) 0.6532(4)
H48 H 0.34030 0.20330 0.67440
C44 C 0.2244(6) 0.0770(5) 0.5812(8)
H49 H 0.21430 0.05570 0.57730
C45 C 0.4206(5) 0.2201(7) 0.4034(5)
H50 H 0.40510 0.20260 0.39940
H51 H 0.43390 0.22310 0.38400
C46 C 0.2704(5) 0.1300(5) 0.3580(5)
H52 H 0.27810 0.13010 0.33540
C47 C 0.3359(4) 0.1735(5) 0.6385(4)
H53 H 0.32640 0.17310 0.61660
C48 C 0.3716(5) 0.1638(7) 0.6368(8)
H54 H 0.38360 0.18120 0.62610
H55 H 0.37990 0.16180 0.65890
Na1 Na 0.3993(3) 0.3993(3) 0.3993(3)
O83 O 0.0756(6) 0.1976(5) 0.4851(5)
O84 O 0.0486(9) 0.3138(9) 0.4957(6)
O41A O 0.3043(3) 0.2474(3) 0.2625(3)
O42A O 0.2065(3) 0.2651(4) 0.2445(3)
O41B O 0.2625(3) 0.3043(3) 0.2474(3)
O42B O 0.2445(3) 0.2065(4) 0.2651(3)
#END

data_CSD_CIF_ALAFIE
_audit_creation_date 2016-04-19
_audit_creation_method CSD-ConQuest-V1
_database_code_CSD ALAFIE
_database_code_depnum_ccdc_archive 'CCDC 1475084'
_chemical_formula_sum 'C36 H84 Cu4 I4 Sb4'
_chemical_formula_moiety
;
C36 H84 Cu4 I4 Sb4
;
_journal_coden_Cambridge 9
_journal_volume 55
_journal_year 2016
_journal_page_first 3206
_journal_name_full 'Inorg.Chem. '
loop_
_publ_author_name
"W.V.Taylor"
"U.H.Soto"
"V.M.Lynch"
"M.J.Rose"
_chemical_name_systematic
;
tetrakis(\m~3~-Iodo)-tetrakis(tri-isopropylstibine)-tetra-copper
;
_cell_volume   2788.931
_exptl_crystal_colour 'colorless'
_exptl_crystal_density_diffrn 2.103
_exptl_crystal_description 'block'
_diffrn_ambient_temperature 150
#These two values have been output from a single CSD field.
_refine_ls_R_factor_gt 0.0345
_refine_ls_wR_factor_gt 0.0345
_symmetry_cell_setting cubic
_symmetry_space_group_name_H-M 'I 2 3'
_symmetry_Int_Tables_number 197
loop_
_symmetry_equiv_pos_site_id
_symmetry_equiv_pos_as_xyz
1 x,y,z
2 -x,-y,z
3 x,-y,-z
4 -x,y,-z
5 z,x,y
6 y,z,x
7 -z,-x,y
8 -y,z,-x
9 z,-x,-y
10 -y,-z,x
11 -z,x,-y
12 y,-z,-x
13 1/2+x,1/2+y,1/2+z
14 1/2-x,1/2-y,1/2+z
15 1/2+x,1/2-y,1/2-z
16 1/2-x,1/2+y,1/2-z
17 1/2+z,1/2+x,1/2+y
18 1/2+y,1/2+z,1/2+x
19 1/2-z,1/2-x,1/2+y
20 1/2-y,1/2+z,1/2-x
21 1/2+z,1/2-x,1/2-y
22 1/2-y,1/2-z,1/2+x
23 1/2-z,1/2+x,1/2-y
24 1/2+y,1/2-z,1/2-x
_cell_length_a 14.0760(2)
_cell_length_b 14.0760(2)
_cell_length_c 14.0760(2)
_cell_angle_alpha 90
_cell_angle_beta 90
_cell_angle_gamma 90
_cell_formula_units_Z 2
loop_
_atom_type_symbol
_atom_type_radius_bond
C 0.68
H 0.23
Cu 1.32
I 1.40
Sb 1.39
loop_
_atom_site_label
_atom_site_type_symbol
_atom_site_fract_x
_atom_site_fract_y
_atom_site_fract_z
I1 I 0.88749(5) 0.11251(5) 0.11251(5)
Sb1 Sb 0.82562(5) -0.17438(5) 0.17438(5)
Cu1 Cu 0.93020(12) -0.06980(12) 0.06980(12)
C1 C 0.9068(16) -0.0967(18) 0.3570(12)
H1 H 0.91350 -0.09910 0.42630
H2 H 0.86610 -0.04300 0.33950
H3 H 0.96960 -0.08880 0.32790
C2 C 0.8621(10) -0.1888(12) 0.3219(9)
H4 H 0.80240 -0.20000 0.35870
C3 C 0.9289(13) -0.2698(17) 0.3411(15)
H5 H 0.98780 -0.26030 0.30520
H6 H 0.89910 -0.32950 0.32140
H7 H 0.94330 -0.27230 0.40910
I1A I 1.11251(5) -0.11251(5) 0.11251(5)
Sb1A Sb 1.17438(5) 0.17438(5) 0.17438(5)
Cu1A Cu 1.06980(12) 0.06980(12) 0.06980(12)
C1A C 1.0932(16) 0.0967(18) 0.3570(12)
H1A H 1.08650 0.09910 0.42630
H2A H 1.13390 0.04300 0.33950
H3A H 1.03040 0.08880 0.32790
C2A C 1.1379(10) 0.1888(12) 0.3219(9)
H4A H 1.19760 0.20000 0.35870
C3A C 1.0711(13) 0.2698(17) 0.3411(15)
H5A H 1.01220 0.26030 0.30520
H6A H 1.10090 0.32950 0.32140
H7A H 1.05670 0.27230 0.40910
I1B I 0.88749(5) -0.11251(5) -0.11251(5)
Sb1B Sb 0.82562(5) 0.17438(5) -0.17438(5)
Cu1B Cu 0.93020(12) 0.06980(12) -0.06980(12)
C1B C 0.9068(16) 0.0967(18) -0.3570(12)
H1B H 0.91350 0.09910 -0.42630
H2B H 0.86610 0.04300 -0.33950
H3B H 0.96960 0.08880 -0.32790
C2B C 0.8621(10) 0.1888(12) -0.3219(9)
H4B H 0.80240 0.20000 -0.35870
C3B C 0.9289(13) 0.2698(17) -0.3411(15)
H5B H 0.98780 0.26030 -0.30520
H6B H 0.89910 0.32950 -0.32140
H7B H 0.94330 0.27230 -0.40910
I1C I 1.11251(5) 0.11251(5) -0.11251(5)
Sb1C Sb 1.17438(5) -0.17438(5) -0.17438(5)
Cu1C Cu 1.06980(12) -0.06980(12) -0.06980(12)
C1C C 1.0932(16) -0.0967(18) -0.3570(12)
H1C H 1.08650 -0.09910 -0.42630
H2C H 1.13390 -0.04300 -0.33950
H3C H 1.03040 -0.08880 -0.32790
C2C C 1.1379(10) -0.1888(12) -0.3219(9)
H4C H 1.19760 -0.20000 -0.35870
C3C C 1.0711(13) -0.2698(17) -0.3411(15)
H5C H 1.01220 -0.26030 -0.30520
H6C H 1.10090 -0.32950 -0.32140
H7C H 1.05670 -0.27230 -0.40910
C1D C 1.3570(16) -0.0932(18) -0.0967(12)
H1D H 1.42630 -0.08650 -0.09910
H2D H 1.33950 -0.13390 -0.04300
H3D H 1.32790 -0.03040 -0.08880
C2D C 1.3219(10) -0.1379(12) -0.1888(9)
H4D H 1.35870 -0.19760 -0.20000
C3D C 1.3411(13) -0.0711(17) -0.2698(15)
H5D H 1.30520 -0.01220 -0.26030
H6D H 1.32140 -0.10090 -0.32950
H7D H 1.40910 -0.05670 -0.27230
C1E C 0.9033(16) 0.3570(18) -0.0932(12)
H1E H 0.90090 0.42630 -0.08650
H2E H 0.95700 0.33950 -0.13390
H3E H 0.91120 0.32790 -0.03040
C2E C 0.8112(10) 0.3219(12) -0.1379(9)
H4E H 0.80000 0.35870 -0.19760
C3E C 0.7302(13) 0.3411(17) -0.0711(15)
H5E H 0.73970 0.30520 -0.01220
H6E H 0.67050 0.32140 -0.10090
H7E H 0.72770 0.40910 -0.05670
C1F C 0.6430(16) 0.0932(18) -0.0967(12)
H1F H 0.57370 0.08650 -0.09910
H2F H 0.66050 0.13390 -0.04300
H3F H 0.67210 0.03040 -0.08880
C2F C 0.6781(10) 0.1379(12) -0.1888(9)
H4F H 0.64130 0.19760 -0.20000
C3F C 0.6589(13) 0.0711(17) -0.2698(15)
H5F H 0.69480 0.01220 -0.26030
H6F H 0.67860 0.10090 -0.32950
H7F H 0.59090 0.05670 -0.27230
C1G C 1.0967(16) 0.3570(18) 0.0932(12)
H1G H 1.09910 0.42630 0.08650
H2G H 1.04300 0.33950 0.13390
H3G H 1.08880 0.32790 0.03040
C2G C 1.1888(10) 0.3219(12) 0.1379(9)
H4G H 1.20000 0.35870 0.19760
C3G C 1.2698(13) 0.3411(17) 0.0711(15)
H5G H 1.26030 0.30520 0.01220
H6G H 1.32950 0.32140 0.10090
H7G H 1.27230 0.40910 0.05670
C1H C 1.3570(16) 0.0932(18) 0.0967(12)
H1H H 1.42630 0.08650 0.09910
H2H H 1.33950 0.13390 0.04300
H3H H 1.32790 0.03040 0.08880
C2H C 1.3219(10) 0.1379(12) 0.1888(9)
H4H H 1.35870 0.19760 0.20000
C3H C 1.3411(13) 0.0711(17) 0.2698(15)
H5H H 1.30520 0.01220 0.26030
H6H H 1.32140 0.10090 0.32950
H7H H 1.40910 0.05670 0.27230
C1I C 1.0967(16) -0.3570(18) -0.0932(12)
H1I H 1.09910 -0.42630 -0.08650
H2I H 1.04300 -0.33950 -0.13390
H3I H 1.08880 -0.32790 -0.03040
C2I C 1.1888(10) -0.3219(12) -0.1379(9)
H4I H 1.20000 -0.35870 -0.19760
C3I C 1.2698(13) -0.3411(17) -0.0711(15)
H5I H 1.26030 -0.30520 -0.01220
H6I H 1.32950 -0.32140 -0.10090
H7I H 1.27230 -0.40910 -0.05670
C1J C 0.6430(16) -0.0932(18) 0.0967(12)
H1J H 0.57370 -0.08650 0.09910
H2J H 0.66050 -0.13390 0.04300
H3J H 0.67210 -0.03040 0.08880
C2J C 0.6781(10) -0.1379(12) 0.1888(9)
H4J H 0.64130 -0.19760 0.20000
C3J C 0.6589(13) -0.0711(17) 0.2698(15)
H5J H 0.69480 -0.01220 0.26030
H6J H 0.67860 -0.10090 0.32950
H7J H 0.59090 -0.05670 0.27230
C1K C 0.9033(16) -0.3570(18) 0.0932(12)
H1K H 0.90090 -0.42630 0.08650
H2K H 0.95700 -0.33950 0.13390
H3K H 0.91120 -0.32790 0.03040
C2K C 0.8112(10) -0.3219(12) 0.1379(9)
H4K H 0.80000 -0.35870 0.19760
C3K C 0.7302(13) -0.3411(17) 0.0711(15)
H5K H 0.73970 -0.30520 0.01220
H6K H 0.67050 -0.32140 0.10090
H7K H 0.72770 -0.40910 0.05670
#END

data_CSD_CIF_BABFIU
_audit_creation_date 2001-12-19
_audit_creation_method CSD-ConQuest-V1
_database_code_CSD BABFIU
_database_code_depnum_ccdc_archive 'CCDC 164459'
_chemical_formula_sum 'C18 H48 Br3 F6 P7 Se4 W3'
_chemical_formula_moiety
;
C18 H48 Br3 P6 Se4 W3 1+,F6 P1 1-
;
_journal_coden_Cambridge 186
_journal_year 2001
_journal_page_first 2813
_journal_name_full 'J.Chem.Soc.,Dalton Trans. '
loop_
_publ_author_name
"R.Llusar"
"S.Uriel"
"C.Vicent"
_chemical_name_systematic
;
(\m~3~-Selenido)-tris(\m~2~-selenido)-tribromo-tris(1,2-bis(dimethylphosphino)
ethane-P,P')-tri-tungsten hexafluorophosphate
;
_cell_volume   9340.474
_exptl_crystal_colour 'green'
_exptl_crystal_density_diffrn 2.421
_exptl_special_details
;
isostructural with the W-S-Br and the Mo-Se-Cl analogues

;
_exptl_crystal_description 'prism'
_exptl_crystal_preparation 'acetonitrile'
_diffrn_ambient_temperature 293
#These two values have been output from a single CSD field.
_refine_ls_R_factor_gt 0.0297
_refine_ls_wR_factor_gt 0.0297
_symmetry_cell_setting cubic
_symmetry_space_group_name_H-M 'I 2 3'
_symmetry_Int_Tables_number 197
loop_
_symmetry_equiv_pos_site_id
_symmetry_equiv_pos_as_xyz
1 x,y,z
2 -x,-y,z
3 -x,y,-z
4 x,-y,-z
5 z,x,y
6 z,-x,-y
7 -z,-x,y
8 -z,x,-y
9 y,z,x
10 -y,z,-x
11 y,-z,-x
12 -y,-z,x
13 1/2+x,1/2+y,1/2+z
14 1/2-x,1/2-y,1/2+z
15 1/2-x,1/2+y,1/2-z
16 1/2+x,1/2-y,1/2-z
17 1/2+z,1/2+x,1/2+y
18 1/2+z,1/2-x,1/2-y
19 1/2-z,1/2-x,1/2+y
20 1/2-z,1/2+x,1/2-y
21 1/2+y,1/2+z,1/2+x
22 1/2-y,1/2+z,1/2-x
23 1/2+y,1/2-z,1/2-x
24 1/2-y,1/2-z,1/2+x
_cell_length_a 21.0599(5)
_cell_length_b 21.0599(5)
_cell_length_c 21.0599(5)
_cell_angle_alpha 90
_cell_angle_beta 90
_cell_angle_gamma 90
_cell_formula_units_Z 8
loop_
_atom_type_symbol
_atom_type_radius_bond
C 0.68
H 0.23
Br 1.21
F 0.64
P 1.05
Se 1.22
W 1.37
loop_
_atom_site_label
_atom_site_type_symbol
_atom_site_fract_x
_atom_site_fract_y
_atom_site_fract_z
W1 W 0.73421(3) 0.29456(2) 0.18826(2)
Se1 Se 0.80178(6) 0.19822(6) 0.19822(6)
Se2 Se 0.76623(7) 0.36987(6) 0.26863(6)
Br1 Br 0.71304(8) 0.24632(8) 0.07423(7)
P1 P 0.66936(19) 0.38420(19) 0.1423(2)
P2 P 0.8161(2) 0.3511(2) 0.11543(18)
C1 C 0.6041(9) 0.3609(9) 0.0924(9)
H1 H 0.61880 0.33150 0.06090
H2 H 0.58680 0.39770 0.07190
H3 H 0.57180 0.34110 0.11790
C2 C 0.6324(8) 0.4381(7) 0.1973(8)
H4 H 0.66360 0.45380 0.22650
H5 H 0.59970 0.41620 0.22030
H6 H 0.61400 0.47290 0.17430
C3 C 0.7199(8) 0.4355(8) 0.0916(8)
H7 H 0.69360 0.45680 0.06030
H8 H 0.74000 0.46780 0.11770
C4 C 0.7687(8) 0.3982(8) 0.0594(7)
H9 H 0.79650 0.42650 0.03610
H10 H 0.74860 0.36990 0.02910
C5 C 0.8709(8) 0.3034(10) 0.0704(8)
H11 H 0.89600 0.27810 0.09890
H12 H 0.89820 0.33050 0.04600
H13 H 0.84760 0.27600 0.04230
C6 C 0.8675(8) 0.4141(9) 0.1484(8)
H14 H 0.84250 0.44190 0.17450
H15 H 0.88620 0.43780 0.11430
H16 H 0.90040 0.39510 0.17360
P3 P 0.50000 0.00000 0.00000
F1 F 0.50000 0.00000 -0.0767(6)
F2 F 0.50000 0.0756(7) 0.00000
F3 F 0.5734(8) 0.00000 0.00000
P4 P 0.50000 0.50000 0.347(3)
F4 F 0.50000 0.50000 0.271(3)
F5 F 0.50000 0.50000 0.424(3)
F6 F 0.50000 0.57530 0.347(3)
F7 F 0.57360 0.50000 0.347(3)
W1F W 0.81174(3) 0.26579(2) 0.29456(2)
W1I W 0.70544(3) 0.18826(2) 0.26579(2)
Se2I Se 0.63013(7) 0.26863(6) 0.23377(6)
Se2F Se 0.73137(7) 0.23377(6) 0.36987(6)
Br1I Br 0.75368(8) 0.07423(8) 0.28696(7)
P1I P 0.61580(19) 0.14230(19) 0.33064(20)
C1I C 0.6391(9) 0.0924(9) 0.3959(9)
H1I H 0.66850 0.06090 0.38120
H2I H 0.60230 0.07190 0.41320
H3I H 0.65890 0.11790 0.42820
C2I C 0.5619(8) 0.1973(7) 0.3676(8)
H4I H 0.54620 0.22650 0.33640
H5I H 0.58380 0.22030 0.40030
H6I H 0.52710 0.17430 0.38600
C3I C 0.5645(8) 0.0916(8) 0.2801(8)
H7I H 0.54320 0.06030 0.30640
H8I H 0.53220 0.11770 0.26000
C4I C 0.6018(8) 0.0594(8) 0.2313(7)
P2I P 0.6489(2) 0.11543(20) 0.18390(18)
C5I C 0.6966(8) 0.0704(10) 0.1291(8)
H11I H 0.72190 0.09890 0.10400
H12I H 0.66950 0.04600 0.10180
H13I H 0.72400 0.04230 0.15240
C6I C 0.5859(8) 0.1484(9) 0.1325(8)
H14I H 0.55810 0.17450 0.15750
H15I H 0.56220 0.11430 0.11380
H16I H 0.60490 0.17360 0.09960
H9I H 0.57350 0.03610 0.20350
H10I H 0.63010 0.02910 0.25140
Br1F Br 0.92577(8) 0.28696(8) 0.24632(7)
P1F P 0.85770(19) 0.33064(19) 0.3842(2)
C1F C 0.9076(9) 0.3959(9) 0.3609(9)
H1F H 0.93910 0.38120 0.33150
H2F H 0.92810 0.41320 0.39770
H3F H 0.88210 0.42820 0.34110
C2F C 0.8027(8) 0.3676(7) 0.4381(8)
H4F H 0.77350 0.33640 0.45380
H5F H 0.77970 0.40030 0.41620
H6F H 0.82570 0.38600 0.47290
C3F C 0.9084(8) 0.2801(8) 0.4355(8)
H7F H 0.93970 0.30640 0.45680
H8F H 0.88230 0.26000 0.46780
C4F C 0.9406(8) 0.2313(8) 0.3982(7)
P2F P 0.88457(20) 0.1839(2) 0.35110(18)
C5F C 0.9296(8) 0.1291(10) 0.3034(8)
H11F H 0.90110 0.10400 0.27810
H12F H 0.95400 0.10180 0.33050
H13F H 0.95770 0.15240 0.27600
C6F C 0.8516(8) 0.1325(9) 0.4141(8)
H14F H 0.82550 0.15750 0.44190
H15F H 0.88570 0.11380 0.43780
H16F H 0.82640 0.09960 0.39510
H9F H 0.96390 0.20350 0.42650
H10F H 0.97090 0.25140 0.36990
F1B F 0.50000 0.00000 0.0767(6)
F2A F 0.50000 -0.0756(7) 0.00000
F3A F 0.4266(8) 0.00000 0.00000
F6A F 0.50000 0.42470 0.347(3)
F7A F 0.42640 0.50000 0.347(3)
#END

data_CSD_CIF_FAZLUO
_audit_creation_date 2005-04-29
_audit_creation_method CSD-ConQuest-V1
_database_code_CSD FAZLUO
_database_code_depnum_ccdc_archive 'CCDC 261067'
_chemical_formula_sum 'C90 H117 N9 O6 Rh3'
_chemical_formula_moiety
;
C63 H90 N9 O6 Rh3,4.5(C6 H6)
;
_journal_coden_Cambridge 4
_journal_volume 126
_journal_year 2004
_journal_page_first 16959
_journal_name_full 'J.Am.Chem.Soc. '
loop_
_publ_author_name
"Z.Grote"
"R.Scopelliti"
"K.Severin"
_chemical_name_systematic
;
tris(\m~2~-4-(4-Methylpiperazinylmethyl)-3-oxypyridine-2(1H)-one)-tris(\h^5^-p
entamethylcyclopentadienyl)-tri-rhodium benzene solvate
;
_cell_volume  17747.719
_exptl_crystal_colour 'red'
_exptl_crystal_density_diffrn 1.295
_exptl_crystal_description 'block'
_exptl_crystal_preparation 'pentane/benzene'
_diffrn_ambient_temperature 140
#These two values have been output from a single CSD field.
_refine_ls_R_factor_gt 0.0265
_refine_ls_wR_factor_gt 0.0265
_symmetry_cell_setting cubic
_symmetry_space_group_name_H-M 'I 2 3'
_symmetry_Int_Tables_number 197
loop_
_symmetry_equiv_pos_site_id
_symmetry_equiv_pos_as_xyz
1 x,y,z
2 -x,-y,z
3 -x,y,-z
4 x,-y,-z
5 z,x,y
6 z,-x,-y
7 -z,-x,y
8 -z,x,-y
9 y,z,x
10 -y,z,-x
11 y,-z,-x
12 -y,-z,x
13 1/2+x,1/2+y,1/2+z
14 1/2-x,1/2-y,1/2+z
15 1/2-x,1/2+y,1/2-z
16 1/2+x,1/2-y,1/2-z
17 1/2+z,1/2+x,1/2+y
18 1/2+z,1/2-x,1/2-y
19 1/2-z,1/2-x,1/2+y
20 1/2-z,1/2+x,1/2-y
21 1/2+y,1/2+z,1/2+x
22 1/2-y,1/2+z,1/2-x
23 1/2+y,1/2-z,1/2-x
24 1/2-y,1/2-z,1/2+x
_cell_length_a 26.0844(7)
_cell_length_b 26.0844(7)
_cell_length_c 26.0844(7)
_cell_angle_alpha 90
_cell_angle_beta 90
_cell_angle_gamma 90
_cell_formula_units_Z 8
loop_
_atom_type_symbol
_atom_type_radius_bond
C 0.68
H 0.23
N 0.68
O 0.68
Rh 1.45
loop_
_atom_site_label
_atom_site_type_symbol
_atom_site_fract_x
_atom_site_fract_y
_atom_site_fract_z
Rh1 Rh 0.388920(8) 0.696366(9) 1.221367(9)
O1 O 0.36053(7) 0.73166(7) 1.28769(7)
O2 O 0.38102(7) 0.77021(7) 1.19511(8)
N1 N 0.31141(9) 0.68659(9) 1.19761(9)
N2 N 0.30051(10) 0.89329(10) 1.13835(10)
N3 N 0.23263(13) 0.90737(11) 1.05242(11)
C1 C 0.34107(10) 0.77612(11) 1.27639(11)
C2 C 0.35104(11) 0.79754(11) 1.22635(11)
C3 C 0.33194(12) 0.84556(12) 1.21404(12)
C4 C 0.30128(13) 0.87079(12) 1.25092(12)
H1 H 0.28630 0.90300 1.24310
C5 C 0.29770(12) 0.70677(11) 1.15116(12)
H2 H 0.32190 0.72730 1.13340
C6 C 0.34511(14) 0.87029(13) 1.16366(12)
H3 H 0.37120 0.89720 1.16950
H4 H 0.36030 0.84420 1.14070
C7 C 0.31603(14) 0.92117(13) 1.09216(13)
H5 H 0.33290 0.89720 1.06810
H6 H 0.34120 0.94800 1.10150
C8 C 0.27043(16) 0.94579(13) 1.06596(13)
H7 H 0.25470 0.97140 1.08920
H8 H 0.28200 0.96380 1.03460
C9 C 0.21806(16) 0.87867(16) 1.09792(13)
H9 H 0.19280 0.85200 1.08840
H10 H 0.20150 0.90210 1.12270
C10 C 0.26348(14) 0.85376(14) 1.12283(14)
H11 H 0.25220 0.83410 1.15330
H12 H 0.27990 0.82970 1.09850
C11 C 0.18899(18) 0.93136(18) 1.02831(17)
H13 H 0.16450 0.90500 1.01760
H14 H 0.20040 0.95080 0.99820
H15 H 0.17240 0.95470 1.05270
C12 C 0.42722(12) 0.64613(12) 1.16921(12)
C13 C 0.46229(11) 0.68552(12) 1.18563(12)
C14 C 0.46761(12) 0.68221(12) 1.24014(12)
C15 C 0.43629(12) 0.63989(12) 1.25743(12)
C16 C 0.41188(11) 0.61742(12) 1.21412(12)
C17 C 0.41198(13) 0.63408(14) 1.11438(13)
H16 H 0.41660 0.66470 1.09310
H17 H 0.37600 0.62350 1.11340
H18 H 0.43360 0.60630 1.10120
C18 C 0.48707(12) 0.72419(14) 1.15176(13)
H19 H 0.52430 0.71940 1.15240
H20 H 0.47870 0.75870 1.16390
H21 H 0.47450 0.71990 1.11660
C19 C 0.50223(12) 0.71434(13) 1.27210(13)
H22 H 0.53750 0.70180 1.26890
H23 H 0.49150 0.71240 1.30800
H24 H 0.50050 0.75000 1.26040
C20 C 0.42941(14) 0.62421(13) 1.31167(13)
H25 H 0.39290 0.61910 1.31870
H26 H 0.44280 0.65110 1.33430
H27 H 0.44800 0.59220 1.31790
C21 C 0.37737(13) 0.57131(12) 1.21429(15)
H28 H 0.39810 0.54020 1.21060
H29 H 0.35310 0.57370 1.18570
H30 H 0.35840 0.57000 1.24670
C22 C 0.46927(15) 0.85984(16) 1.24564(16)
H31 H 0.44980 0.83680 1.22520
C23 C 0.44469(15) 0.89303(16) 1.27830(16)
H32 H 0.40830 0.89370 1.27970
C24 C 0.47291(18) 0.92521(17) 1.3089(2)
H33 H 0.45640 0.94770 1.33220
C25 C 0.52607(18) 0.92442(17) 1.3051(2)
H34 H 0.54580 0.94710 1.32570
C26 C 0.55013(15) 0.89204(15) 1.27272(17)
H35 H 0.58650 0.89160 1.27090
C27 C 0.52180(14) 0.85966(15) 1.24233(16)
H36 H 0.53850 0.83720 1.21910
C28 C 0.4739(2) 0.9541(2) 1.1204(3)
H37 H 0.45540 0.92280 1.12100
C29 C 0.4876(2) 0.9767(3) 1.0733(2)
H38 H 0.47990 0.95990 1.04190
C30 C 0.4874(2) 0.97758(19) 1.1652(2)
H39 H 0.47880 0.96190 1.19690
Rh1K Rh 0.303634(8) 0.778633(9) 1.388920(9)
Rh1E Rh 0.221367(8) 0.611080(9) 1.303634(9)
O1K O 0.26834(7) 0.71231(7) 1.36053(7)
O1E O 0.28769(7) 0.63947(7) 1.26834(7)
O2E O 0.19511(7) 0.61898(7) 1.22979(8)
O2K O 0.22979(7) 0.80489(7) 1.38102(8)
N1K N 0.31341(9) 0.80239(9) 1.31141(9)
N1E N 0.19761(9) 0.68859(9) 1.31341(9)
N2E N 0.13835(10) 0.69949(10) 1.10671(10)
N2K N 0.10671(10) 0.86165(10) 1.30051(10)
N3E N 0.05242(13) 0.76737(11) 1.09263(11)
N3K N 0.09263(13) 0.94758(11) 1.23263(11)
C1K C 0.22388(10) 0.72361(11) 1.34107(11)
C1E C 0.27639(10) 0.65893(11) 1.22388(11)
C2E C 0.22635(11) 0.64896(11) 1.20246(11)
C2K C 0.20246(11) 0.77365(11) 1.35104(11)
C3E C 0.21404(12) 0.66806(12) 1.15444(12)
C3K C 0.15444(12) 0.78596(12) 1.33194(12)
C4E C 0.25092(13) 0.69872(12) 1.12921(12)
C4K C 0.12921(13) 0.74908(12) 1.30128(12)
H1E H 0.24310 0.71370 1.09700
H1K H 0.09700 0.75690 1.28630
C5K C 0.29323(12) 0.84884(11) 1.29770(12)
C5E C 0.15116(12) 0.70230(11) 1.29323(12)
H2K H 0.27270 0.86660 1.32190
H2E H 0.13340 0.67810 1.27270
C6E C 0.16366(14) 0.65489(13) 1.12971(12)
C6K C 0.12971(14) 0.83634(13) 1.34511(12)
H3E H 0.16950 0.62880 1.10280
H3K H 0.10280 0.83050 1.37120
H4E H 0.14070 0.63970 1.15580
H4K H 0.15580 0.85930 1.36030
C7E C 0.09216(14) 0.68397(13) 1.07883(13)
C7K C 0.07883(14) 0.90784(13) 1.31603(13)
H5E H 0.06810 0.66710 1.10280
H5K H 0.10280 0.93190 1.33290
H6E H 0.10150 0.65880 1.05200
H6K H 0.05200 0.89850 1.34120
C8E C 0.06596(16) 0.72957(13) 1.05421(13)
C8K C 0.05421(16) 0.93404(13) 1.27043(13)
H7E H 0.08920 0.74530 1.02860
H7K H 0.02860 0.91080 1.25470
H8E H 0.03460 0.71800 1.03620
H8K H 0.03620 0.96540 1.28200
C9E C 0.09792(16) 0.78194(16) 1.12133(13)
C9K C 0.12133(16) 0.90208(16) 1.21806(13)
H9E H 0.08840 0.80720 1.14800
H9K H 0.14800 0.91160 1.19280
H10E H 0.12270 0.79850 1.09790
H10K H 0.09790 0.87730 1.20150
C10E C 0.12283(14) 0.73652(14) 1.14624(14)
C10K C 0.14624(14) 0.87717(14) 1.26348(14)
H11E H 0.15330 0.74780 1.16590
H11K H 0.16590 0.84670 1.25220
H12E H 0.09850 0.72010 1.17030
H12K H 0.17030 0.90150 1.27990
C11E C 0.02831(18) 0.81101(18) 1.06864(17)
C11K C 0.06864(18) 0.97169(18) 1.18899(17)
H13E H 0.01760 0.83550 1.09500
H13K H 0.09500 0.98240 1.16450
H14E H -0.00180 0.79960 1.04920
H14K H 0.04920 1.00180 1.20040
H15E H 0.05270 0.82760 1.04530
H15K H 0.04530 0.94730 1.17240
C12E C 0.16921(12) 0.57278(12) 1.35387(12)
C12K C 0.35387(12) 0.83079(12) 1.42722(12)
C13E C 0.18563(11) 0.53771(12) 1.31448(12)
C13K C 0.31448(11) 0.81437(12) 1.46229(12)
C14E C 0.24014(12) 0.53239(12) 1.31779(12)
C14K C 0.31779(12) 0.75986(12) 1.46761(12)
C15E C 0.25743(12) 0.56371(12) 1.36011(12)
C15K C 0.36011(12) 0.74257(12) 1.43629(12)
C16E C 0.21412(11) 0.58812(12) 1.38258(12)
C16K C 0.38258(11) 0.78588(12) 1.41188(12)
C17E C 0.11438(13) 0.58802(14) 1.36592(13)
C17K C 0.36592(13) 0.88562(14) 1.41198(13)
H16E H 0.09310 0.58340 1.33530
H16K H 0.33530 0.90690 1.41660
H17E H 0.11340 0.62400 1.37650
H17K H 0.37650 0.88660 1.37600
H18E H 0.10120 0.56640 1.39370
H18K H 0.39370 0.89880 1.43360
C18E C 0.15176(12) 0.51293(14) 1.27581(13)
C18K C 0.27581(12) 0.84824(14) 1.48707(13)
H19E H 0.15240 0.47570 1.28060
H19K H 0.28060 0.84760 1.52430
H20E H 0.16390 0.52130 1.24130
H20K H 0.24130 0.83610 1.47870
H21E H 0.11660 0.52550 1.28010
H21K H 0.28010 0.88340 1.47450
C19E C 0.27210(12) 0.49777(13) 1.28566(13)
C19K C 0.28566(12) 0.72790(13) 1.50223(13)
H22E H 0.26890 0.46250 1.29820
H22K H 0.29820 0.73110 1.53750
H23E H 0.30800 0.50850 1.28760
H23K H 0.28760 0.69200 1.49150
H24E H 0.26040 0.49950 1.25000
H24K H 0.25000 0.73960 1.50050
C20E C 0.31167(14) 0.57059(13) 1.37579(13)
C20K C 0.37579(14) 0.68833(13) 1.42941(13)
H25E H 0.31870 0.60710 1.38090
H25K H 0.38090 0.68130 1.39290
H26E H 0.33430 0.55720 1.34890
H26K H 0.34890 0.66570 1.44280
H27E H 0.31790 0.55200 1.40780
H27K H 0.40780 0.68210 1.44800
C21E C 0.21429(13) 0.62263(12) 1.42869(15)
C21K C 0.42869(13) 0.78571(12) 1.37737(15)
H28E H 0.21060 0.60190 1.45980
H28K H 0.45980 0.78940 1.39810
H29E H 0.18570 0.64690 1.42630
H29K H 0.42630 0.81430 1.35310
H30E H 0.24670 0.64160 1.43000
H30K H 0.43000 0.75330 1.35840
C28A C 0.5261(2) 1.0459(2) 1.1204(3)
H37A H 0.54460 1.07720 1.12100
C29A C 0.5124(2) 1.0233(3) 1.0733(2)
H38A H 0.52010 1.04010 1.04190
C30A C 0.5126(2) 1.02242(19) 1.1652(2)
H39A H 0.52120 1.03810 1.19690
#END

data_CSD_CIF_FOGRUO
_audit_creation_date 1988-04-27
_audit_creation_method CSD-ConQuest-V1
_database_code_CSD FOGRUO
_database_code_depnum_ccdc_archive 'CCDC 1158477'
_chemical_formula_sum 'C12 H36 Mo1 N6'
_chemical_formula_moiety
;
C12 H36 Mo1 N6
;
_journal_coden_Cambridge 182
_journal_year 1987
_journal_page_first 1423
_journal_name_full 'Chem.Commun. '
loop_
_publ_author_name
"M.H.Chisholm"
"C.E.Hammond"
"J.C.Huffman"
_chemical_name_systematic
;
hexakis(Dimethylamido)-molybdenum(vi)
;
_cell_volume    912.955
_exptl_crystal_colour 'dark red'
_exptl_crystal_density_diffrn 1.313
_diffrn_ambient_temperature 118.15
#These two values have been output from a single CSD field.
_refine_ls_R_factor_gt 0.0161
_refine_ls_wR_factor_gt 0.0161
_symmetry_cell_setting cubic
_symmetry_space_group_name_H-M 'I 2 3'
_symmetry_Int_Tables_number 197
loop_
_symmetry_equiv_pos_site_id
_symmetry_equiv_pos_as_xyz
1 x,y,z
2 1/2+x,1/2+y,1/2+z
3 z,x,y
4 y,z,x
5 1/2+z,1/2+x,1/2+y
6 1/2+y,1/2+z,1/2+x
7 x,-y,-z
8 1/2+x,1/2-y,1/2-z
9 z,-x,-y
10 y,-z,-x
11 1/2+z,1/2-x,1/2-y
12 1/2+y,1/2-z,1/2-x
13 -x,y,-z
14 1/2-x,1/2+y,1/2-z
15 -z,x,-y
16 -y,z,-x
17 1/2-z,1/2+x,1/2-y
18 1/2-y,1/2+z,1/2-x
19 -x,-y,z
20 1/2-x,1/2-y,1/2+z
21 -z,-x,y
22 -y,-z,x
23 1/2-z,1/2-x,1/2+y
24 1/2-y,1/2-z,1/2+x
_cell_length_a 9.701(1)
_cell_length_b 9.701(1)
_cell_length_c 9.701(1)
_cell_angle_alpha 90
_cell_angle_beta 90
_cell_angle_gamma 90
_cell_formula_units_Z 2
loop_
_atom_type_symbol
_atom_type_radius_bond
C 0.68
H 0.23
Mo 1.47
N 0.68
loop_
_atom_site_label
_atom_site_type_symbol
_atom_site_fract_x
_atom_site_fract_y
_atom_site_fract_z
Mo1 Mo -0.50000 -0.50000 -0.50000
N1 N -0.7097(1) -0.50000 -0.50000
C1 C -0.7983(2) -0.5014(10) -0.6219(2)
H1 H -0.744(3) -0.533(3) -0.705(3)
H2 H -0.825(6) -0.619(6) -0.580(5)
H3 H -0.862(2) -0.420(2) -0.631(2)
N1B N -0.5000(1) -0.70970 -0.50000
N1C N -0.5000(1) -0.50000 -0.70970
N1H N -0.5000(1) -0.29030 -0.50000
N1I N -0.5000(1) -0.50000 -0.29030
N1L N -0.2903(1) -0.50000 -0.50000
C1F C -0.7983(2) -0.4986(10) -0.3781(2)
C1B C -0.6219(2) -0.7983(10) -0.5014(2)
C1N C -0.3781(2) -0.7983(10) -0.4986(2)
C1C C -0.5014(2) -0.6219(10) -0.7983(2)
C1U C -0.4986(2) -0.3781(10) -0.7983(2)
C1H C -0.6219(2) -0.2017(10) -0.4986(2)
C1T C -0.3781(2) -0.2017(10) -0.5014(2)
C1I C -0.5014(2) -0.3781(10) -0.2017(2)
C1O C -0.4986(2) -0.6219(10) -0.2017(2)
C1L C -0.2017(2) -0.5014(10) -0.3781(2)
C1R C -0.2017(2) -0.4986(10) -0.6219(2)
H1F H -0.744(3) -0.467(3) -0.295(3)
H2F H -0.825(6) -0.381(6) -0.420(5)
H3F H -0.862(2) -0.580(2) -0.369(2)
H1B H -0.705(3) -0.744(3) -0.533(3)
H2B H -0.580(6) -0.825(6) -0.619(5)
H3B H -0.631(2) -0.862(2) -0.420(2)
H1N H -0.295(3) -0.744(3) -0.467(3)
H2N H -0.420(6) -0.825(6) -0.381(5)
H3N H -0.369(2) -0.862(2) -0.580(2)
H1C H -0.533(3) -0.705(3) -0.744(3)
H2C H -0.619(6) -0.580(6) -0.825(5)
H3C H -0.420(2) -0.631(2) -0.862(2)
H1U H -0.467(3) -0.295(3) -0.744(3)
H2U H -0.381(6) -0.420(6) -0.825(5)
H3U H -0.580(2) -0.369(2) -0.862(2)
H1H H -0.705(3) -0.256(3) -0.467(3)
H2H H -0.580(6) -0.175(6) -0.381(5)
H3H H -0.631(2) -0.138(2) -0.580(2)
H1T H -0.295(3) -0.256(3) -0.533(3)
H2T H -0.420(6) -0.175(6) -0.619(5)
H3T H -0.369(2) -0.138(2) -0.420(2)
H1I H -0.533(3) -0.295(3) -0.256(3)
H2I H -0.619(6) -0.420(6) -0.175(5)
H3I H -0.420(2) -0.369(2) -0.138(2)
H1O H -0.467(3) -0.705(3) -0.256(3)
H2O H -0.381(6) -0.580(6) -0.175(5)
H3O H -0.580(2) -0.631(2) -0.138(2)
H1L H -0.256(3) -0.533(3) -0.295(3)
H2L H -0.175(6) -0.619(6) -0.420(5)
H3L H -0.138(2) -0.420(2) -0.369(2)
H1R H -0.256(3) -0.467(3) -0.705(3)
H2R H -0.175(6) -0.381(6) -0.580(5)
H3R H -0.138(2) -0.580(2) -0.631(2)
#END

data_CSD_CIF_GEQCOU
_audit_creation_date 1999-04-15
_audit_creation_method CSD-ConQuest-V1
_database_code_CSD GEQCOU
_database_code_depnum_ccdc_fiz 'CSD 407680'
_chemical_formula_sum 'C79.88 H59.9 F2.33 N9.33 O2 P2.66 Re1'
_chemical_formula_moiety
;
1.33(C36 H30 N1 P2 1+),C32 H16 F2 N8 Re1 1-,0.33(F1 1-),2(H2 O1)
;
_journal_coden_Cambridge 29
_journal_volume 624
_journal_year 1998
_journal_page_first 897
_journal_name_full 'Z.Anorg.Allg.Chem. '
loop_
_publ_author_name
"M.Goldner"
"H.Huckstadt"
"H.Homborg"
_chemical_name_systematic
;
bis(Triphenylphosphine)iminium trans-difluorophthalocyaninato-rhenium(iii) 
fluoride dihydrate
;
_cell_volume  10411.643
_exptl_crystal_colour 'red'
_exptl_crystal_density_diffrn 1.429
_exptl_crystal_description 'cubic'
_diffrn_ambient_temperature 173
#These two values have been output from a single CSD field.
_refine_ls_R_factor_gt 0.0469
_refine_ls_wR_factor_gt 0.0469
_symmetry_cell_setting cubic
_symmetry_space_group_name_H-M 'I 2 3'
_symmetry_Int_Tables_number 197
loop_
_symmetry_equiv_pos_site_id
_symmetry_equiv_pos_as_xyz
1 x,y,z
2 -x,-y,z
3 x,-y,-z
4 -x,y,-z
5 z,x,y
6 y,z,x
7 -z,-x,y
8 -y,z,-x
9 z,-x,-y
10 -y,-z,x
11 -z,x,-y
12 y,-z,-x
13 1/2+x,1/2+y,1/2+z
14 1/2-x,1/2-y,1/2+z
15 1/2+x,1/2-y,1/2-z
16 1/2-x,1/2+y,1/2-z
17 1/2+z,1/2+x,1/2+y
18 1/2+y,1/2+z,1/2+x
19 1/2-z,1/2-x,1/2+y
20 1/2-y,1/2+z,1/2-x
21 1/2+z,1/2-x,1/2-y
22 1/2-y,1/2-z,1/2+x
23 1/2-z,1/2+x,1/2-y
24 1/2+y,1/2-z,1/2-x
_cell_length_a 21.836(2)
_cell_length_b 21.836(2)
_cell_length_c 21.836(2)
_cell_angle_alpha 90
_cell_angle_beta 90
_cell_angle_gamma 90
_cell_formula_units_Z 6
loop_
_atom_type_symbol
_atom_type_radius_bond
C 0.68
H 0.23
F 0.64
N 0.68
O 0.68
P 1.05
Re 1.35
loop_
_atom_site_label
_atom_site_type_symbol
_atom_site_fract_x
_atom_site_fract_y
_atom_site_fract_z
Re1 Re 0.00000 0.50000 0.50000
F1 F 0.0823(3) 0.50000 0.50000
N1 N 0.0001(10) 0.4341(3) 0.4342(3)
N2 N 0.00000 0.50000 0.3442(4)
N3 N 0.00000 0.3446(4) 0.50000
C1 C -0.0043(11) 0.4454(4) 0.3728(4)
C2 C -0.0071(11) 0.3863(6) 0.3418(5)
C3 C -0.0026(16) 0.3728(8) 0.2790(5)
H1 H -0.0006(16) 0.4026(8) 0.2487(5)
C4 C -0.0014(19) 0.3075(10) 0.2665(9)
H2 H -0.0030(19) 0.2948(10) 0.2258(9)
C5 C 0.0017(18) 0.2644(9) 0.310(1)
H3 H 0.0000(18) 0.2235(9) 0.2983(10)
C6 C 0.0073(15) 0.2782(6) 0.3721(8)
H4 H 0.0139(15) 0.2483(6) 0.4017(8)
C7 C 0.0022(14) 0.3417(5) 0.3868(5)
C8 C 0.0035(11) 0.3727(4) 0.4459(4)
N4 N 0.2461(11) 0.2461(11) 0.2461(11)
P1 P 0.2900(3) 0.2900(3) 0.2900(3)
P2 P 0.2089(3) 0.2089(3) 0.2089(3)
C9 C 0.1560(6) 0.2514(5) 0.1648(6)
C10 C 0.0986(6) 0.2283(6) 0.1499(6)
H5 H 0.0870(8) 0.1896(7) 0.1635(9)
C11 C 0.0585(5) 0.2630(9) 0.1147(7)
H6 H 0.0201(6) 0.2476(12) 0.1048(11)
C12 C 0.0758(8) 0.3208(8) 0.0944(6)
H7 H 0.049(1) 0.344(1) 0.0708(9)
C13 C 0.1333(9) 0.3438(5) 0.1092(7)
H8 H 0.1449(13) 0.3825(6) 0.0956(10)
C14 C 0.1734(7) 0.3091(6) 0.1445(7)
H9 H 0.2118(9) 0.3246(9) 0.1544(11)
C15 C 0.3426(5) 0.3353(5) 0.2467(4)
C16 C 0.3990(5) 0.3498(6) 0.2725(5)
H10 H 0.4089(7) 0.3356(8) 0.3114(6)
C17 C 0.4405(5) 0.3855(5) 0.2400(6)
H11 H 0.4782(5) 0.3952(6) 0.2572(7)
C18 C 0.4256(7) 0.4067(5) 0.1818(6)
H12 H 0.4534(8) 0.4305(7) 0.1601(6)
C19 C 0.3692(7) 0.3921(6) 0.1561(5)
H13 H 0.3593(10) 0.4063(8) 0.1172(6)
C20 C 0.3277(6) 0.3564(4) 0.1886(4)
H14 H 0.2900(6) 0.3467(5) 0.1714(5)
O1 O 0.0044(12) 0.1042(15) 0.1054(15)
F2 F 0.0007(17) -0.0014(18) 0.0007(19)
F1A F -0.0823(3) 0.50000 0.50000
C1A C 0.0043(11) 0.5546(4) 0.3728(4)
N1A N -0.0001(10) 0.5659(3) 0.4342(3)
N1B N 0.0001(10) 0.5659(3) 0.5658(3)
C1B C -0.0043(11) 0.5546(4) 0.6272(4)
N2B N 0.00000 0.50000 0.6558(4)
C1C C 0.0043(11) 0.4454(4) 0.6272(4)
N1C N -0.0001(10) 0.4341(3) 0.5658(3)
C8C C -0.0035(11) 0.3727(4) 0.5541(4)
C7C C -0.0022(14) 0.3417(5) 0.6132(5)
C2C C 0.0071(11) 0.3863(6) 0.6582(5)
C3C C 0.0026(16) 0.3728(8) 0.7210(5)
H1C H 0.0006(16) 0.4026(8) 0.7513(5)
C4C C 0.0014(19) 0.3075(10) 0.7335(9)
H2C H 0.0030(19) 0.2948(10) 0.7742(9)
C5C C -0.0017(18) 0.2644(9) 0.690(1)
H3C H 0.0000(18) 0.2235(9) 0.7017(10)
C6C C -0.0073(15) 0.2782(6) 0.6279(8)
H4C H -0.0139(15) 0.2483(6) 0.5983(8)
C2B C -0.0071(11) 0.6137(6) 0.6582(5)
C3B C -0.0026(16) 0.6272(8) 0.7210(5)
H1B H -0.0006(16) 0.5974(8) 0.7513(5)
C4B C -0.0014(19) 0.6925(10) 0.7335(9)
H2B H -0.0030(19) 0.7052(10) 0.7742(9)
C5B C 0.0017(18) 0.7356(9) 0.690(1)
H3B H 0.0000(18) 0.7765(9) 0.7017(10)
C6B C 0.0073(15) 0.7218(6) 0.6279(8)
H4B H 0.0139(15) 0.7517(6) 0.5983(8)
C7B C 0.0022(14) 0.6583(5) 0.6132(5)
C8B C 0.0035(11) 0.6273(4) 0.5541(4)
N3A N 0.00000 0.6554(4) 0.50000
C8A C -0.0035(11) 0.6273(4) 0.4459(4)
C7A C -0.0022(14) 0.6583(5) 0.3868(5)
C2A C 0.0071(11) 0.6137(6) 0.3418(5)
C3A C 0.0026(16) 0.6272(8) 0.2790(5)
H1A H 0.0006(16) 0.5974(8) 0.2487(5)
C4A C 0.0014(19) 0.6925(10) 0.2665(9)
H2A H 0.0030(19) 0.7052(10) 0.2258(9)
C5A C -0.0017(18) 0.7356(9) 0.310(1)
H3A H 0.0000(18) 0.7765(9) 0.2983(10)
C6A C -0.0073(15) 0.7218(6) 0.3721(8)
H4A H -0.0139(15) 0.7517(6) 0.4017(8)
C15D C 0.2467(5) 0.3426(5) 0.3353(4)
C16D C 0.2725(5) 0.3990(6) 0.3498(5)
H10D H 0.3114(7) 0.4089(8) 0.3356(6)
C17D C 0.2400(5) 0.4405(5) 0.3855(6)
H11D H 0.2572(5) 0.4782(6) 0.3952(7)
C18D C 0.1818(7) 0.4256(5) 0.4067(6)
H12D H 0.1601(8) 0.4534(7) 0.4305(6)
C19D C 0.1561(7) 0.3692(6) 0.3921(5)
H13D H 0.1172(10) 0.3593(8) 0.4063(6)
C20D C 0.1886(6) 0.3277(4) 0.3564(4)
H14D H 0.1714(6) 0.2900(5) 0.3467(5)
C15E C 0.3353(5) 0.2467(5) 0.3426(4)
C16E C 0.3498(5) 0.2725(6) 0.3990(5)
H10E H 0.3356(7) 0.3114(8) 0.4089(6)
C17E C 0.3855(5) 0.2400(5) 0.4405(6)
H11E H 0.3952(5) 0.2572(6) 0.4782(7)
C18E C 0.4067(7) 0.1818(5) 0.4256(6)
H12E H 0.4305(8) 0.1601(7) 0.4534(6)
C19E C 0.3921(7) 0.1561(6) 0.3692(5)
H13E H 0.4063(10) 0.1172(8) 0.3593(6)
C20E C 0.3564(6) 0.1886(4) 0.3277(4)
H14E H 0.3467(6) 0.1714(5) 0.2900(5)
C9D C 0.1648(6) 0.1560(5) 0.2514(6)
C10D C 0.1499(6) 0.0986(6) 0.2283(6)
H5D H 0.1635(8) 0.0870(7) 0.1896(9)
C11D C 0.1147(5) 0.0585(9) 0.2630(7)
H6D H 0.1048(6) 0.0201(12) 0.2476(11)
C12D C 0.0944(8) 0.0758(8) 0.3208(6)
H7D H 0.0708(10) 0.049(1) 0.3440(9)
C13D C 0.1092(9) 0.1333(5) 0.3438(7)
H8D H 0.0956(13) 0.1449(6) 0.3825(10)
C14D C 0.1445(7) 0.1734(6) 0.3091(7)
H9D H 0.1544(9) 0.2118(9) 0.3246(11)
C9E C 0.2514(6) 0.1648(5) 0.1560(6)
C10E C 0.2283(6) 0.1499(6) 0.0986(6)
H5E H 0.1896(8) 0.1635(7) 0.0870(9)
C11E C 0.2630(5) 0.1147(9) 0.0585(7)
H6E H 0.2476(6) 0.1048(12) 0.0201(11)
C12E C 0.3208(8) 0.0944(8) 0.0758(6)
H7E H 0.344(1) 0.0708(10) 0.0490(9)
C13E C 0.3438(9) 0.1092(5) 0.1333(7)
H8E H 0.3825(13) 0.0956(6) 0.1449(10)
C14E C 0.3091(7) 0.1445(6) 0.1734(7)
H9E H 0.3246(9) 0.1544(9) 0.2118(11)
#END

data_CSD_CIF_GEXSAF
_audit_creation_date 2013-05-23
_audit_creation_method CSD-ConQuest-V1
_database_code_CSD GEXSAF
_database_code_depnum_ccdc_archive 'CCDC 881804'
_chemical_formula_sum 'C18 H12 Bi1 Br3 F3 P1 Se1'
_chemical_formula_moiety
;
C18 H12 F3 P1 Se1,Bi1 Br3
;
_journal_coden_Cambridge 222
_journal_volume 41
_journal_year 2012
_journal_page_first 10211
_journal_name_full 'Dalton Trans. '
loop_
_publ_author_name
"F.B.Alhanash"
"N.A.Barnes"
"A.K.Brisdon"
"S.M.Godfrey"
"R.G.Pritchard"
_chemical_name_systematic
;
tris(4-fluorophenyl)phosphine selenide tribromobismuthine
;
_cell_volume   4356.944
_exptl_crystal_colour 'yellow'
_exptl_crystal_density_diffrn 2.573
_exptl_special_details
;
Absolute configuration

;
_exptl_crystal_description 'block'
_exptl_crystal_preparation 'dichloromethane'
_diffrn_ambient_temperature 100
#These two values have been output from a single CSD field.
_refine_ls_R_factor_gt 0.0454
_refine_ls_wR_factor_gt 0.0454
_symmetry_cell_setting cubic
_symmetry_space_group_name_H-M 'I 2 3'
_symmetry_Int_Tables_number 197
loop_
_symmetry_equiv_pos_site_id
_symmetry_equiv_pos_as_xyz
1 x,y,z
2 -x,-y,z
3 x,-y,-z
4 -x,y,-z
5 z,x,y
6 y,z,x
7 -z,-x,y
8 -y,z,-x
9 z,-x,-y
10 -y,-z,x
11 -z,x,-y
12 y,-z,-x
13 1/2+x,1/2+y,1/2+z
14 1/2-x,1/2-y,1/2+z
15 1/2+x,1/2-y,1/2-z
16 1/2-x,1/2+y,1/2-z
17 1/2+z,1/2+x,1/2+y
18 1/2+y,1/2+z,1/2+x
19 1/2-z,1/2-x,1/2+y
20 1/2-y,1/2+z,1/2-x
21 1/2+z,1/2-x,1/2-y
22 1/2-y,1/2-z,1/2+x
23 1/2-z,1/2+x,1/2-y
24 1/2+y,1/2-z,1/2-x
_cell_length_a 16.3328(8)
_cell_length_b 16.3328(8)
_cell_length_c 16.3328(8)
_cell_angle_alpha 90
_cell_angle_beta 90
_cell_angle_gamma 90
_cell_formula_units_Z 8
loop_
_atom_type_symbol
_atom_type_radius_bond
C 0.68
H 0.23
Bi 1.48
Br 1.21
F 0.64
P 1.05
Se 1.22
loop_
_atom_site_label
_atom_site_type_symbol
_atom_site_fract_x
_atom_site_fract_y
_atom_site_fract_z
C1 C 0.2726(7) 0.1395(6) 0.8459(7)
C2 C 0.3223(8) 0.1324(8) 0.7789(8)
H1 H 0.30010 0.13900 0.72550
C3 C 0.4047(7) 0.1158(9) 0.7886(8)
H2 H 0.44000 0.11310 0.74240
C4 C 0.4344(7) 0.1033(8) 0.8648(8)
C5 C 0.3860(8) 0.1098(8) 0.9336(7)
H3 H 0.40910 0.10160 0.98630
C6 C 0.3036(8) 0.1283(8) 0.9255(7)
H4 H 0.26920 0.13310 0.97220
F1 F 0.5153(4) 0.0897(5) 0.8761(5)
P1 P 0.16510(18) 0.16510(18) 0.83490(18)
Se1 Se 0.08773(7) 0.08773(7) 0.91227(7)
Br1 Br 0.14584(8) 0.26932(8) 1.07836(8)
Bi1 Bi 0.11493(3) 0.11493(3) 1.11493(3)
C1J C 0.1541(7) 0.2726(6) 0.8605(7)
C2J C 0.2211(8) 0.3223(8) 0.8676(8)
H1J H 0.27450 0.30010 0.86100
C3J C 0.2114(7) 0.4047(9) 0.8842(8)
H2J H 0.25760 0.44000 0.88690
C4J C 0.1352(7) 0.4344(8) 0.8967(8)
C5J C 0.0664(8) 0.3860(8) 0.8902(7)
H3J H 0.01370 0.40910 0.89840
C6J C 0.0745(8) 0.3036(8) 0.8717(7)
H4J H 0.02780 0.26920 0.86690
F1J F 0.1239(4) 0.5153(5) 0.9103(5)
C1K C 0.1395(7) 0.1541(6) 0.7274(7)
C2K C 0.1324(8) 0.2211(8) 0.6777(8)
H1K H 0.13900 0.27450 0.69990
C3K C 0.1158(7) 0.2114(9) 0.5953(8)
H2K H 0.11310 0.25760 0.56000
C4K C 0.1033(7) 0.1352(8) 0.5656(8)
C5K C 0.1098(8) 0.0664(8) 0.6140(7)
H3K H 0.10160 0.01370 0.59090
C6K C 0.1283(8) 0.0745(8) 0.6964(7)
H4K H 0.13310 0.02780 0.73080
F1K F 0.0897(4) 0.1239(5) 0.4847(5)
Br1D Br 0.07836(8) 0.14584(8) 1.26932(8)
Br1E Br 0.26932(8) 0.07836(8) 1.14584(8)
#END

data_CSD_CIF_GEXSEJ
_audit_creation_date 2013-05-23
_audit_creation_method CSD-ConQuest-V1
_database_code_CSD GEXSEJ
_database_code_depnum_ccdc_archive 'CCDC 881803'
_chemical_formula_sum 'C18 H12 Bi1 Cl3 F3 P1 Se1'
_chemical_formula_moiety
;
C18 H12 F3 P1 Se1,Bi1 Cl3
;
_journal_coden_Cambridge 222
_journal_volume 41
_journal_year 2012
_journal_page_first 10211
_journal_name_full 'Dalton Trans. '
loop_
_publ_author_name
"F.B.Alhanash"
"N.A.Barnes"
"A.K.Brisdon"
"S.M.Godfrey"
"R.G.Pritchard"
_chemical_name_systematic
;
tris(4-fluorophenyl)phosphine selenide trichlorobismuthine
;
_cell_volume   4204.698
_exptl_crystal_colour 'colorless'
_exptl_crystal_density_diffrn 2.245
_exptl_special_details
;
Absolute configuration

;
_exptl_crystal_description 'block'
_exptl_crystal_preparation 'dichloromethane'
_diffrn_ambient_temperature 100
#These two values have been output from a single CSD field.
_refine_ls_R_factor_gt 0.0469
_refine_ls_wR_factor_gt 0.0469
_symmetry_cell_setting cubic
_symmetry_space_group_name_H-M 'I 2 3'
_symmetry_Int_Tables_number 197
loop_
_symmetry_equiv_pos_site_id
_symmetry_equiv_pos_as_xyz
1 x,y,z
2 -x,-y,z
3 x,-y,-z
4 -x,y,-z
5 z,x,y
6 y,z,x
7 -z,-x,y
8 -y,z,-x
9 z,-x,-y
10 -y,-z,x
11 -z,x,-y
12 y,-z,-x
13 1/2+x,1/2+y,1/2+z
14 1/2-x,1/2-y,1/2+z
15 1/2+x,1/2-y,1/2-z
16 1/2-x,1/2+y,1/2-z
17 1/2+z,1/2+x,1/2+y
18 1/2+y,1/2+z,1/2+x
19 1/2-z,1/2-x,1/2+y
20 1/2-y,1/2+z,1/2-x
21 1/2+z,1/2-x,1/2-y
22 1/2-y,1/2-z,1/2+x
23 1/2-z,1/2+x,1/2-y
24 1/2+y,1/2-z,1/2-x
_cell_length_a 16.1403(9)
_cell_length_b 16.1403(9)
_cell_length_c 16.1403(9)
_cell_angle_alpha 90
_cell_angle_beta 90
_cell_angle_gamma 90
_cell_formula_units_Z 8
loop_
_atom_type_symbol
_atom_type_radius_bond
C 0.68
H 0.23
Bi 1.48
Cl 0.99
F 0.64
P 1.05
Se 1.22
loop_
_atom_site_label
_atom_site_type_symbol
_atom_site_fract_x
_atom_site_fract_y
_atom_site_fract_z
C1 C 0.8465(9) 0.7271(8) 0.8628(7)
C2 C 0.7768(8) 0.6776(9) 0.8655(9)
H1 H 0.72380 0.70130 0.85540
C3 C 0.7833(8) 0.5918(8) 0.8829(10)
H2 H 0.73660 0.55610 0.88480
C4 C 0.8624(8) 0.5648(8) 0.8970(8)
C5 C 0.9328(8) 0.6098(9) 0.8945(9)
H3 H 0.98540 0.58540 0.90430
C6 C 0.9244(8) 0.6956(8) 0.8764(9)
H4 H 0.97170 0.73050 0.87370
F1 F 0.8727(5) 0.4803(4) 0.9116(5)
P1 P 0.8350(2) 0.8350(2) 0.8350(2)
Se1 Se 0.91305(7) 0.91305(7) 0.91305(7)
Cl1 Cl 0.8547(2) 0.73600(19) 1.0816(2)
Bi1 Bi 0.88379(3) 0.88379(3) 1.11621(3)
C1D C 0.8628(9) 0.8465(8) 0.7271(7)
C2D C 0.8655(8) 0.7768(9) 0.6776(9)
H1D H 0.85540 0.72380 0.70130
C3D C 0.8829(8) 0.7833(8) 0.5918(10)
H2D H 0.88480 0.73660 0.55610
C4D C 0.8970(8) 0.8624(8) 0.5648(8)
C5D C 0.8945(8) 0.9328(9) 0.6098(9)
H3D H 0.90430 0.98540 0.58540
C6D C 0.8764(8) 0.9244(8) 0.6956(9)
H4D H 0.87370 0.97170 0.73050
F1D F 0.9116(5) 0.8727(4) 0.4803(5)
C1E C 0.7271(9) 0.8628(8) 0.8465(7)
C2E C 0.6776(8) 0.8655(9) 0.7768(9)
H1E H 0.70130 0.85540 0.72380
C3E C 0.5918(8) 0.8829(8) 0.7833(10)
H2E H 0.55610 0.88480 0.73660
C4E C 0.5648(8) 0.8970(8) 0.8624(8)
C5E C 0.6098(8) 0.8945(9) 0.9328(9)
H3E H 0.58540 0.90430 0.98540
C6E C 0.6956(8) 0.8764(8) 0.9244(9)
H4E H 0.73050 0.87370 0.97170
F1E F 0.4803(5) 0.9116(4) 0.8727(5)
Cl1J Cl 0.9184(2) 0.85470(19) 1.2640(2)
Cl1K Cl 0.7360(2) 0.91840(19) 1.1453(2)
#END

data_CSD_CIF_GUPKEJ
_audit_creation_date 2015-09-23
_audit_creation_method CSD-ConQuest-V1
_database_code_CSD GUPKEJ
_database_code_depnum_ccdc_archive 'CCDC 1426865'
_chemical_formula_sum 'C24 H60 Mn4 P4 Te4'
_chemical_formula_moiety
;
C24 H60 Mn4 P4 Te4
;
_journal_coden_Cambridge 9
_journal_volume 54
_journal_year 2015
_journal_page_first 8348
_journal_name_full 'Inorg.Chem. '
loop_
_publ_author_name
"B.Choi"
"D.W.Paley"
"T.Siegrist"
"M.L.Steigerwald"
"X.Roy"
_chemical_name_systematic
;
tetrakis(\m-tellurido)-tetrakis(triethylphosphine)-tetra-manganese
;
_cell_volume   2286.482
_exptl_crystal_density_diffrn 1.747
_exptl_special_details
;
Absolute configuration

;
_diffrn_ambient_temperature 100
_diffrn_special_details
;
twin

;
#These two values have been output from a single CSD field.
_refine_ls_R_factor_gt 0.0118
_refine_ls_wR_factor_gt 0.0118
_symmetry_cell_setting cubic
_symmetry_space_group_name_H-M 'I 2 3'
_symmetry_Int_Tables_number 197
loop_
_symmetry_equiv_pos_site_id
_symmetry_equiv_pos_as_xyz
1 x,y,z
2 -x,-y,z
3 -x,y,-z
4 x,-y,-z
5 z,x,y
6 z,-x,-y
7 -z,-x,y
8 -z,x,-y
9 y,z,x
10 -y,z,-x
11 y,-z,-x
12 -y,-z,x
13 1/2+x,1/2+y,1/2+z
14 1/2-x,1/2-y,1/2+z
15 1/2-x,1/2+y,1/2-z
16 1/2+x,1/2-y,1/2-z
17 1/2+z,1/2+x,1/2+y
18 1/2+z,1/2-x,1/2-y
19 1/2-z,1/2-x,1/2+y
20 1/2-z,1/2+x,1/2-y
21 1/2+y,1/2+z,1/2+x
22 1/2-y,1/2+z,1/2-x
23 1/2+y,1/2-z,1/2-x
24 1/2-y,1/2-z,1/2+x
_cell_length_a 13.17415(5)
_cell_length_b 13.17415(5)
_cell_length_c 13.17415(5)
_cell_angle_alpha 90
_cell_angle_beta 90
_cell_angle_gamma 90
_cell_formula_units_Z 2
loop_
_atom_type_symbol
_atom_type_radius_bond
C 0.68
H 0.23
Mn 1.61
P 1.05
Te 1.47
loop_
_atom_site_label
_atom_site_type_symbol
_atom_site_fract_x
_atom_site_fract_y
_atom_site_fract_z
Te1 Te 0.11794(2) 0.88206(2) 0.88206(2)
Mn1 Mn -0.08129(2) 0.91871(2) 0.91871(2)
P1 P -0.18993(4) 0.81007(4) 0.81007(4)
C1 C -0.1367(3) 0.7870(3) 0.6827(3)
H1 H -0.07360 0.74680 0.68980
H2 H -0.18560 0.74580 0.64320
C2 C -0.1137(9) 0.8803(9) 0.6255(3)
H3 H -0.06780 0.92320 0.66540
H4 H -0.17680 0.91730 0.61210
H5 H -0.08120 0.86250 0.56100
C1D C -0.3173(3) 0.8633(3) 0.7870(3)
H1D H -0.31020 0.92640 0.74680
H2D H -0.35680 0.81440 0.74580
C2D C -0.3745(9) 0.8863(9) 0.8803(3)
H3D H -0.33460 0.93220 0.92320
H4D H -0.38790 0.82320 0.91730
H5D H -0.43900 0.91880 0.86250
C1H C -0.2130(3) 0.6827(3) 0.8633(3)
H1H H -0.25320 0.68980 0.92640
H2H H -0.25420 0.64320 0.81440
C2H C -0.1197(9) 0.6255(9) 0.8863(3)
H3H H -0.07680 0.66540 0.93220
H4H H -0.08270 0.61210 0.82320
H5H H -0.13750 0.56100 0.91880
Te1A Te -0.11794(2) 1.11794(2) 0.88206(2)
Mn1A Mn 0.08129(2) 1.08129(2) 0.91871(2)
P1A P 0.18993(4) 1.18993(4) 0.81007(4)
C1A C 0.1367(3) 1.2130(3) 0.6827(3)
H1A H 0.07360 1.25320 0.68980
H2A H 0.18560 1.25420 0.64320
C2A C 0.1137(9) 1.1197(9) 0.6255(3)
H3A H 0.06780 1.07680 0.66540
H4A H 0.17680 1.08270 0.61210
H5A H 0.08120 1.13750 0.56100
C1F C 0.3173(3) 1.1367(3) 0.7870(3)
H1F H 0.31020 1.07360 0.74680
H2F H 0.35680 1.18560 0.74580
C2F C 0.3745(9) 1.1137(9) 0.8803(3)
H3F H 0.33460 1.06780 0.92320
H4F H 0.38790 1.17680 0.91730
H5F H 0.43900 1.08120 0.86250
C1K C 0.2130(3) 1.3173(3) 0.8633(3)
H1K H 0.25320 1.31020 0.92640
H2K H 0.25420 1.35680 0.81440
C2K C 0.1197(9) 1.3745(9) 0.8863(3)
H3K H 0.07680 1.33460 0.93220
H4K H 0.08270 1.38790 0.82320
H5K H 0.13750 1.43900 0.91880
Te1B Te -0.11794(2) 0.88206(2) 1.11794(2)
Mn1B Mn 0.08129(2) 0.91871(2) 1.08129(2)
P1B P 0.18993(4) 0.81007(4) 1.18993(4)
C1B C 0.1367(3) 0.7870(3) 1.3173(3)
H1B H 0.07360 0.74680 1.31020
H2B H 0.18560 0.74580 1.35680
C2B C 0.1137(9) 0.8803(9) 1.3745(3)
H3B H 0.06780 0.92320 1.33460
H4B H 0.17680 0.91730 1.38790
H5B H 0.08120 0.86250 1.43900
C1G C 0.3173(3) 0.8633(3) 1.2130(3)
H1G H 0.31020 0.92640 1.25320
H2G H 0.35680 0.81440 1.25420
C2G C 0.3745(9) 0.8863(9) 1.1197(3)
H3G H 0.33460 0.93220 1.07680
H4G H 0.38790 0.82320 1.08270
H5G H 0.43900 0.91880 1.13750
C1I C 0.2130(3) 0.6827(3) 1.1367(3)
H1I H 0.25320 0.68980 1.07360
H2I H 0.25420 0.64320 1.18560
C2I C 0.1197(9) 0.6255(9) 1.1137(3)
H3I H 0.07680 0.66540 1.06780
H4I H 0.08270 0.61210 1.17680
H5I H 0.13750 0.56100 1.08120
Te1C Te 0.11794(2) 1.11794(2) 1.11794(2)
Mn1C Mn -0.08129(2) 1.08129(2) 1.08129(2)
P1C P -0.18993(4) 1.18993(4) 1.18993(4)
C1C C -0.1367(3) 1.2130(3) 1.3173(3)
H1C H -0.07360 1.25320 1.31020
H2C H -0.18560 1.25420 1.35680
C2C C -0.1137(9) 1.1197(9) 1.3745(3)
H3C H -0.06780 1.07680 1.33460
H4C H -0.17680 1.08270 1.38790
H5C H -0.08120 1.13750 1.43900
C1E C -0.3173(3) 1.1367(3) 1.2130(3)
H1E H -0.31020 1.07360 1.25320
H2E H -0.35680 1.18560 1.25420
C2E C -0.3745(9) 1.1137(9) 1.1197(3)
H3E H -0.33460 1.06780 1.07680
H4E H -0.38790 1.17680 1.08270
H5E H -0.43900 1.08120 1.13750
C1J C -0.2130(3) 1.3173(3) 1.1367(3)
H1J H -0.25320 1.31020 1.07360
H2J H -0.25420 1.35680 1.18560
C2J C -0.1197(9) 1.3745(9) 1.1137(3)
H3J H -0.07680 1.33460 1.06780
H4J H -0.08270 1.38790 1.17680
H5J H -0.13750 1.43900 1.08120
#END

data_CSD_CIF_HMGETP
_audit_creation_date 1976-05-27
_audit_creation_method CSD-ConQuest-V1
_database_code_CSD HMGETP
_chemical_formula_sum 'C12 H36 Ge6 P4'
_chemical_formula_moiety
;
C12 H36 Ge6 P4
;
_journal_coden_Cambridge 4
_journal_volume 97
_journal_year 1975
_journal_page_first 6364
_journal_name_full 'J.Am.Chem.Soc. '
loop_
_publ_author_name
"A.R.Dahl"
"A.D.Norman"
"H.Shenav"
"R.Schaeffer"
_chemical_name_systematic
;
hexakis(Dimethylgermanium)tetraphosphide
;
_cell_volume   1295.385
_diffrn_ambient_temperature ?
_diffrn_special_details
;
The study was carried out at room temperature,in the range 283-303K

;
#These two values have been output from a single CSD field.
_refine_ls_R_factor_gt 0.024
_refine_ls_wR_factor_gt 0.024
loop_
_citation_database_id_CSD
_citation_special_details
HMGETP01 "is a reinterpretation of this cif"
_symmetry_cell_setting cubic
_symmetry_space_group_name_H-M 'I 2 3'
_symmetry_Int_Tables_number 197
loop_
_symmetry_equiv_pos_site_id
_symmetry_equiv_pos_as_xyz
1 x,y,z
2 1/2+x,1/2+y,1/2+z
3 z,x,y
4 y,z,x
5 1/2+z,1/2+x,1/2+y
6 1/2+y,1/2+z,1/2+x
7 x,-y,-z
8 1/2+x,1/2-y,1/2-z
9 z,-x,-y
10 y,-z,-x
11 1/2+z,1/2-x,1/2-y
12 1/2+y,1/2-z,1/2-x
13 -x,y,-z
14 1/2-x,1/2+y,1/2-z
15 -z,x,-y
16 -y,z,-x
17 1/2-z,1/2+x,1/2-y
18 1/2-y,1/2+z,1/2-x
19 -x,-y,z
20 1/2-x,1/2-y,1/2+z
21 -z,-x,y
22 -y,-z,x
23 1/2-z,1/2-x,1/2+y
24 1/2-y,1/2-z,1/2+x
_cell_length_a 10.901(3)
_cell_length_b 10.901(3)
_cell_length_c 10.901(3)
_cell_angle_alpha 90
_cell_angle_beta 90
_cell_angle_gamma 90
_cell_formula_units_Z 2
loop_
_atom_type_symbol
_atom_type_radius_bond
C 0.68
Ge 1.17
P 1.05
loop_
_atom_site_label
_atom_site_type_symbol
_atom_site_fract_x
_atom_site_fract_y
_atom_site_fract_z
C1 C 0.34520 -0.10160 -0.10070
Ge1 Ge 0.23620 0.00000 0.00000
P1 P 0.13100 -0.13100 0.13100
C1F C 0.34520 0.10160 0.10070
Ge1C Ge 0.00000 0.00000 0.23620
C1C C -0.10160 -0.10070 0.34520
C1U C 0.10160 0.10070 0.34520
P1C P -0.13100 0.13100 0.13100
Ge1B Ge 0.00000 0.23620 0.00000
C1B C -0.10070 0.34520 -0.10160
C1N C 0.10070 0.34520 0.10160
P1B P 0.13100 0.13100 -0.13100
Ge1I Ge 0.00000 0.00000 -0.23620
C1I C -0.10160 0.10070 -0.34520
C1O C 0.10160 -0.10070 -0.34520
P1I P -0.13100 -0.13100 -0.13100
Ge1H Ge 0.00000 -0.23620 0.00000
C1H C -0.10070 -0.34520 0.10160
C1T C 0.10070 -0.34520 -0.10160
Ge1R Ge -0.23620 0.00000 0.00000
C1R C -0.34520 0.10160 -0.10070
C1L C -0.34520 -0.10160 0.10070
#END

data_CSD_CIF_ICUCAK
_audit_creation_date 2002-02-07
_audit_creation_method CSD-ConQuest-V1
_database_code_CSD ICUCAK
_database_code_depnum_ccdc_archive 'CCDC 175909'
_chemical_formula_sum 'C75 H99 Al3 Cl6 O12'
_chemical_formula_moiety
;
C63 H75 Al3 Cl6 O9,3(C4 H8 O1)
;
_journal_coden_Cambridge 579
_journal_volume 20
_journal_year 2001
_journal_page_first 5076
_journal_name_full 'Organometallics '
loop_
_publ_author_name
"Huei-Ling Chen"
"Bao-Tsan Ko"
"Bor-Hunn Huang"
"Chu-Chieh Lin"
_chemical_name_systematic
;
tris((\m~2~-Hydroxo)-(2,2'-methylenebis(4-chloro-6-isopropyl-3-methylphenolato
))-aluminium) tetrahydrofuran solvate
;
_cell_volume  15856.383
_diffrn_ambient_temperature 293
#These two values have been output from a single CSD field.
_refine_ls_R_factor_gt 0.0442
_refine_ls_wR_factor_gt 0.0442
_symmetry_cell_setting cubic
_symmetry_space_group_name_H-M 'I 2 3'
_symmetry_Int_Tables_number 197
loop_
_symmetry_equiv_pos_site_id
_symmetry_equiv_pos_as_xyz
1 x,y,z
2 -x,-y,z
3 -x,y,-z
4 x,-y,-z
5 z,x,y
6 z,-x,-y
7 -z,-x,y
8 -z,x,-y
9 y,z,x
10 -y,z,-x
11 y,-z,-x
12 -y,-z,x
13 1/2+x,1/2+y,1/2+z
14 1/2-x,1/2-y,1/2+z
15 1/2-x,1/2+y,1/2-z
16 1/2+x,1/2-y,1/2-z
17 1/2+z,1/2+x,1/2+y
18 1/2+z,1/2-x,1/2-y
19 1/2-z,1/2-x,1/2+y
20 1/2-z,1/2+x,1/2-y
21 1/2+y,1/2+z,1/2+x
22 1/2-y,1/2+z,1/2-x
23 1/2+y,1/2-z,1/2-x
24 1/2-y,1/2-z,1/2+x
_cell_length_a 25.1228(8)
_cell_length_b 25.1228(8)
_cell_length_c 25.1228(8)
_cell_angle_alpha 90
_cell_angle_beta 90
_cell_angle_gamma 90
_cell_formula_units_Z 8
loop_
_atom_type_symbol
_atom_type_radius_bond
C 0.68
H 0.23
Al 1.35
Cl 0.99
O 0.68
loop_
_atom_site_label
_atom_site_type_symbol
_atom_site_fract_x
_atom_site_fract_y
_atom_site_fract_z
Al1 Al 0.15481(3) 0.19514(3) 0.26051(3)
Cl1 Cl 0.00674(5) 0.35874(5) 0.41286(6)
Cl2 Cl -0.06613(3) 0.03390(4) 0.36613(4)
O1 O 0.17386(7) 0.22657(7) 0.31853(7)
O2 O 0.09375(7) 0.16738(8) 0.26419(7)
O3 O 0.20609(7) 0.15113(8) 0.24053(8)
H1 H 0.203(3) 0.128(2) 0.246(2)
O4 O 0.20195(15) 0.06065(12) 0.28655(16)
C1 C 0.13485(10) 0.25673(11) 0.34231(10)
C2 C 0.13904(12) 0.31225(12) 0.33897(11)
C3 C 0.09848(14) 0.34170(13) 0.36157(14)
H2 H 0.10000 0.37870 0.36040
C4 C 0.05593(13) 0.31748(15) 0.38574(14)
C5 C 0.05195(11) 0.26260(14) 0.39112(12)
C6 C 0.09264(10) 0.23142(12) 0.36866(10)
C7 C 0.09322(11) 0.17104(12) 0.37648(10)
H3 H 0.12860 0.15830 0.36760
H4 H 0.08760 0.16390 0.41400
C8 C 0.05337(10) 0.13813(11) 0.34521(11)
C9 C 0.01606(11) 0.10443(12) 0.37025(12)
C10 C -0.01839(11) 0.07644(12) 0.33811(12)
C11 C -0.01732(11) 0.07891(12) 0.28299(13)
H5 H -0.04160 0.05930 0.26310
C12 C 0.01996(10) 0.11062(11) 0.25758(11)
C13 C 0.05556(9) 0.13896(10) 0.28926(10)
C14 C 0.18820(15) 0.33724(12) 0.31492(14)
H6 H 0.19970 0.31450 0.28540
C15 C 0.1807(2) 0.39363(17) 0.29276(19)
H7 H 0.15280 0.39340 0.26660
H8 H 0.21320 0.40540 0.27660
H9 H 0.17120 0.41730 0.32120
C16 C 0.23269(17) 0.33842(18) 0.35530(18)
H10 H 0.26370 0.35440 0.33970
H11 H 0.24090 0.30270 0.36620
H12 H 0.22180 0.35880 0.38570
C17 C 0.00652(15) 0.23736(19) 0.42067(15)
H13 H -0.01740 0.26450 0.43280
H14 H 0.02000 0.21800 0.45070
H15 H -0.01210 0.21340 0.39740
C18 C 0.01433(15) 0.09622(17) 0.42949(13)
H16 H -0.01400 0.07210 0.43820
H17 H 0.00830 0.12970 0.44680
H18 H 0.04760 0.08160 0.44130
C19 C 0.02445(13) 0.11240(13) 0.19740(12)
H19 H 0.04070 0.14660 0.18820
C20 C -0.02829(18) 0.1101(3) 0.16959(17)
H20 H -0.05050 0.13860 0.18200
H21 H -0.04520 0.07660 0.17700
H22 H -0.02300 0.11350 0.13190
C21 C 0.0624(2) 0.0691(2) 0.17844(19)
H23 H 0.09570 0.07240 0.19690
H24 H 0.06820 0.07290 0.14090
H25 H 0.04710 0.03480 0.18560
C22 C 0.1882(4) 0.0567(3) 0.3421(3)
H26 H 0.15030 0.05070 0.34650
H27 H 0.19800 0.08890 0.36100
C23 C 0.2192(5) 0.0104(3) 0.3620(3)
H28 H 0.24450 0.02200 0.38880
H29 H 0.19540 -0.01530 0.37820
C24 C 0.2457(3) -0.0128(2) 0.3203(3)
H30 H 0.23300 -0.04880 0.31500
H31 H 0.28350 -0.01430 0.32790
C25 C 0.2369(3) 0.0175(2) 0.2742(3)
H32 H 0.22110 -0.00470 0.24680
H33 H 0.27040 0.03120 0.26080
Al1D Al 0.26051(3) 0.15481(3) 0.19514(3)
O1D O 0.31853(7) 0.17386(7) 0.22657(7)
C1D C 0.34231(10) 0.13485(11) 0.25673(10)
C2D C 0.33897(12) 0.13904(12) 0.31225(11)
C3D C 0.36157(14) 0.09848(13) 0.34170(14)
H2D H 0.36040 0.10000 0.37870
C4D C 0.38574(13) 0.05593(15) 0.31748(14)
Cl1D Cl 0.41286(5) 0.00674(5) 0.35874(6)
C5D C 0.39112(11) 0.05195(14) 0.26260(12)
C6D C 0.36866(10) 0.09264(12) 0.23142(10)
C7D C 0.37648(11) 0.09322(12) 0.17104(10)
H3D H 0.36760 0.12860 0.15830
H4D H 0.41400 0.08760 0.16390
C8D C 0.34521(10) 0.05337(11) 0.13813(11)
C9D C 0.37025(11) 0.01606(12) 0.10443(12)
C10D C 0.33811(11) -0.01839(12) 0.07644(12)
Cl2D Cl 0.36613(3) -0.06613(4) 0.03390(4)
C11D C 0.28299(11) -0.01732(12) 0.07891(13)
H5D H 0.26310 -0.04160 0.05930
C12D C 0.25758(10) 0.01996(11) 0.11062(11)
C13D C 0.28926(9) 0.05556(10) 0.13896(10)
O2D O 0.26419(7) 0.09375(8) 0.16738(7)
O3D O 0.24053(7) 0.20609(8) 0.15113(8)
Al1H Al 0.19514(3) 0.26051(3) 0.15481(3)
O1H O 0.22657(7) 0.31853(7) 0.17386(7)
C1H C 0.25673(10) 0.34231(11) 0.13485(10)
C2H C 0.31225(12) 0.33897(12) 0.13904(11)
C3H C 0.34170(14) 0.36157(13) 0.09848(14)
H2H H 0.37870 0.36040 0.10000
C4H C 0.31748(13) 0.38574(15) 0.05593(14)
Cl1H Cl 0.35874(5) 0.41286(5) 0.00674(6)
C5H C 0.26260(11) 0.39112(14) 0.05195(12)
C6H C 0.23142(10) 0.36866(12) 0.09264(10)
C7H C 0.17104(11) 0.37648(12) 0.09322(10)
H3H H 0.15830 0.36760 0.12860
H4H H 0.16390 0.41400 0.08760
C8H C 0.13813(10) 0.34521(11) 0.05337(11)
C9H C 0.10443(11) 0.37025(12) 0.01606(12)
C10H C 0.07644(11) 0.33811(12) -0.01839(12)
Cl2H Cl 0.03390(3) 0.36613(4) -0.06613(4)
C11H C 0.07891(11) 0.28299(12) -0.01732(13)
H5H H 0.05930 0.26310 -0.04160
C12H C 0.11062(10) 0.25758(11) 0.01996(11)
C13H C 0.13896(9) 0.28926(10) 0.05556(10)
O2H O 0.16738(7) 0.26419(8) 0.09375(7)
O3H O 0.15113(7) 0.24053(8) 0.20609(8)
H1H H 0.128(3) 0.246(2) 0.203(2)
C19H C 0.11240(13) 0.19740(13) 0.02445(12)
H19H H 0.14660 0.18820 0.04070
C20H C 0.11010(18) 0.16959(30) -0.02829(17)
H20H H 0.13860 0.18200 -0.05050
H21H H 0.07660 0.17700 -0.04520
H22H H 0.11350 0.13190 -0.02300
C21H C 0.0691(2) 0.17844(20) 0.06240(19)
H23H H 0.07240 0.19690 0.09570
H24H H 0.07290 0.14090 0.06820
H25H H 0.03480 0.18560 0.04710
C18H C 0.09622(15) 0.42949(17) 0.01433(13)
H16H H 0.07210 0.43820 -0.01400
H17H H 0.12970 0.44680 0.00830
H18H H 0.08160 0.44130 0.04760
C17H C 0.23736(15) 0.42067(19) 0.00652(15)
H13H H 0.26450 0.43280 -0.01740
H14H H 0.21800 0.45070 0.02000
H15H H 0.21340 0.39740 -0.01210
C14H C 0.33724(15) 0.31492(12) 0.18820(14)
H6H H 0.31450 0.28540 0.19970
C15H C 0.39363(20) 0.29276(17) 0.18070(19)
H7H H 0.39340 0.26660 0.15280
H8H H 0.40540 0.27660 0.21320
H9H H 0.41730 0.32120 0.17120
C16H C 0.33842(17) 0.35530(18) 0.23269(18)
H10H H 0.35440 0.33970 0.26370
H11H H 0.30270 0.36620 0.24090
H12H H 0.35880 0.38570 0.22180
H1D H 0.246(3) 0.203(2) 0.128(2)
C19D C 0.19740(13) 0.02445(13) 0.11240(12)
H19D H 0.18820 0.04070 0.14660
C20D C 0.16959(18) -0.02829(30) 0.11010(17)
H20D H 0.18200 -0.05050 0.13860
H21D H 0.17700 -0.04520 0.07660
H22D H 0.13190 -0.02300 0.11350
C21D C 0.17844(20) 0.0624(2) 0.06910(19)
H23D H 0.19690 0.09570 0.07240
H24D H 0.14090 0.06820 0.07290
H25D H 0.18560 0.04710 0.03480
C18D C 0.42949(15) 0.01433(17) 0.09622(13)
H16D H 0.43820 -0.01400 0.07210
H17D H 0.44680 0.00830 0.12970
H18D H 0.44130 0.04760 0.08160
C17D C 0.42067(15) 0.00652(19) 0.23736(15)
H13D H 0.43280 -0.01740 0.26450
H14D H 0.45070 0.02000 0.21800
H15D H 0.39740 -0.01210 0.21340
C14D C 0.31492(15) 0.18820(12) 0.33724(14)
H6D H 0.28540 0.19970 0.31450
C15D C 0.29276(20) 0.18070(17) 0.39363(19)
H7D H 0.26660 0.15280 0.39340
H8D H 0.27660 0.21320 0.40540
H9D H 0.32120 0.17120 0.41730
C16D C 0.35530(17) 0.23269(18) 0.33842(18)
H10D H 0.33970 0.26370 0.35440
H11D H 0.36620 0.24090 0.30270
H12D H 0.38570 0.22180 0.35880
#END

data_CSD_CIF_KEFDOQ
_audit_creation_date 2012-09-26
_audit_creation_method CSD-ConQuest-V1
_database_code_CSD KEFDOQ
_database_code_depnum_ccdc_archive 'CCDC 830647'
_chemical_formula_sum 'C48 H42 O13 Zn4'
_chemical_formula_moiety
;
C48 H42 O13 Zn4
;
_journal_coden_Cambridge 9
_journal_volume 51
_journal_year 2012
_journal_page_first 7410
_journal_name_full 'Inorg.Chem. '
loop_
_publ_author_name
"W.Bury"
"I.Justyniak"
"D.Prochowicz"
"A.Rola-Noworyta"
"J.Lewinski"
_chemical_name_systematic
;
(\m~4~-Oxo)-hexakis(\m~2~-4-methylbenzoato-O,O')-tetra-zinc
;
_cell_volume  12221.038
_exptl_crystal_colour 'colorless'
_exptl_crystal_density_diffrn 1.183
_exptl_crystal_description 'cubic'
_diffrn_ambient_temperature 100
#These two values have been output from a single CSD field.
_refine_ls_R_factor_gt 0.0474
_refine_ls_wR_factor_gt 0.0474
_symmetry_cell_setting cubic
_symmetry_space_group_name_H-M 'I 2 3'
_symmetry_Int_Tables_number 197
loop_
_symmetry_equiv_pos_site_id
_symmetry_equiv_pos_as_xyz
1 x,y,z
2 -x,-y,z
3 x,-y,-z
4 -x,y,-z
5 y,z,x
6 -y,-z,x
7 y,-z,-x
8 -y,z,-x
9 z,x,y
10 -z,x,-y
11 -z,-x,y
12 z,-x,-y
13 1/2+x,1/2+y,1/2+z
14 1/2-x,1/2-y,1/2+z
15 1/2+x,1/2-y,1/2-z
16 1/2-x,1/2+y,1/2-z
17 1/2+y,1/2+z,1/2+x
18 1/2-y,1/2-z,1/2+x
19 1/2+y,1/2-z,1/2-x
20 1/2-y,1/2+z,1/2-x
21 1/2+z,1/2+x,1/2+y
22 1/2-z,1/2+x,1/2-y
23 1/2-z,1/2-x,1/2+y
24 1/2+z,1/2-x,1/2-y
_cell_length_a 23.034(5)
_cell_length_b 23.034(5)
_cell_length_c 23.034(5)
_cell_angle_alpha 90
_cell_angle_beta 90
_cell_angle_gamma 90
_cell_formula_units_Z 8
loop_
_atom_type_symbol
_atom_type_radius_bond
C 0.68
H 0.23
O 0.68
Zn 1.22
loop_
_atom_site_label
_atom_site_type_symbol
_atom_site_fract_x
_atom_site_fract_y
_atom_site_fract_z
C1 C 0.2201(2) 0.12432(18) 0.04099(18)
C2 C 0.2387(2) 0.0952(2) -0.0135(2)
C3 C 0.2006(3) 0.0605(3) -0.0447(2)
H1 H 0.16270 0.05570 -0.03160
C4 C 0.2178(4) 0.0333(3) -0.0942(3)
H2 H 0.19070 0.01250 -0.11570
C5 C 0.2726(4) 0.0357(4) -0.1126(4)
C6 C 0.3107(4) 0.0719(5) -0.0833(4)
H3 H 0.34860 0.07620 -0.09670
C7 C 0.2933(3) 0.1014(4) -0.0350(3)
H4 H 0.31930 0.12610 -0.01640
C8 C 0.2946(5) 0.0058(6) -0.1684(5)
H5 H 0.27590 -0.03120 -0.17260
H6 H 0.33590 0.00030 -0.16590
H7 H 0.28570 0.02960 -0.20140
C9 C 0.32396(18) 0.14232(17) 0.22696(18)
C10 C 0.38418(17) 0.12904(18) 0.24435(18)
C11 C 0.3967(2) 0.0887(2) 0.2880(3)
H8 H 0.36650 0.07000 0.30730
C12 C 0.4533(2) 0.0766(3) 0.3026(4)
H9 H 0.46090 0.04850 0.33050
C13 C 0.4987(2) 0.1049(2) 0.2770(3)
C14 C 0.4857(2) 0.1464(3) 0.2375(3)
H10 H 0.51590 0.16840 0.22200
C15 C 0.4310(2) 0.1573(3) 0.2196(2)
H11 H 0.42470 0.18420 0.19020
C16 C 0.5615(2) 0.0940(3) 0.2968(5)
H12 H 0.56190 0.06390 0.32560
H13 H 0.57720 0.12900 0.31300
H14 H 0.58450 0.08220 0.26420
O1 O 0.18023(11) 0.18023(11) 0.18023(11)
O2 O 0.16977(14) 0.11416(16) 0.05925(13)
O3 O 0.25578(15) 0.15771(14) 0.06523(13)
O4 O 0.28337(13) 0.12213(12) 0.25734(12)
O5 O 0.31737(13) 0.17333(16) 0.18223(15)
Zn1 Zn 0.250883(18) 0.200202(18) 0.138364(18)
Zn2 Zn 0.131719(18) 0.131719(18) 0.131719(18)
C1D C 0.12432(20) 0.04099(18) 0.22010(18)
C1H C 0.04099(20) 0.22010(18) 0.12432(18)
C2D C 0.0952(2) -0.0135(2) 0.2387(2)
C2H C -0.0135(2) 0.2387(2) 0.0952(2)
C3D C 0.0605(3) -0.0447(3) 0.2006(2)
C3H C -0.0447(3) 0.2006(3) 0.0605(2)
H1D H 0.05570 -0.03160 0.16270
H1H H -0.03160 0.16270 0.05570
C4D C 0.0333(4) -0.0942(3) 0.2178(3)
C4H C -0.0942(4) 0.2178(3) 0.0333(3)
H2D H 0.01250 -0.11570 0.19070
H2H H -0.11570 0.19070 0.01250
C5D C 0.0357(4) -0.1126(4) 0.2726(4)
C5H C -0.1126(4) 0.2726(4) 0.0357(4)
C6D C 0.0719(4) -0.0833(5) 0.3107(4)
C6H C -0.0833(4) 0.3107(5) 0.0719(4)
H3D H 0.07620 -0.09670 0.34860
H3H H -0.09670 0.34860 0.07620
C7D C 0.1014(3) -0.0350(4) 0.2933(3)
C7H C -0.0350(3) 0.2933(4) 0.1014(3)
H4D H 0.12610 -0.01640 0.31930
H4H H -0.01640 0.31930 0.12610
C8D C 0.0058(5) -0.1684(6) 0.2946(5)
C8H C -0.1684(5) 0.2946(6) 0.0058(5)
H5D H -0.03120 -0.17260 0.27590
H5H H -0.17260 0.27590 -0.03120
H6D H 0.00030 -0.16590 0.33590
H6H H -0.16590 0.33590 0.00030
H7D H 0.02960 -0.20140 0.28570
H7H H -0.20140 0.28570 0.02960
C9D C 0.14232(18) 0.22696(17) 0.32396(18)
C9H C 0.22696(18) 0.32396(17) 0.14232(18)
C10D C 0.12904(17) 0.24435(18) 0.38418(18)
C10H C 0.24435(17) 0.38418(18) 0.12904(18)
C11D C 0.0887(2) 0.2880(2) 0.3967(3)
C11H C 0.2880(2) 0.3967(2) 0.0887(3)
H8D H 0.07000 0.30730 0.36650
H8H H 0.30730 0.36650 0.07000
C12D C 0.0766(2) 0.3026(3) 0.4533(4)
C12H C 0.3026(2) 0.4533(3) 0.0766(4)
H9D H 0.04850 0.33050 0.46090
H9H H 0.33050 0.46090 0.04850
C13D C 0.1049(2) 0.2770(2) 0.4987(3)
C13H C 0.2770(2) 0.4987(2) 0.1049(3)
C14D C 0.1464(2) 0.2375(3) 0.4857(3)
C14H C 0.2375(2) 0.4857(3) 0.1464(3)
H10D H 0.16840 0.22200 0.51590
H10H H 0.22200 0.51590 0.16840
C15D C 0.1573(2) 0.2196(3) 0.4310(2)
C15H C 0.2196(2) 0.4310(3) 0.1573(2)
H11D H 0.18420 0.19020 0.42470
H11H H 0.19020 0.42470 0.18420
C16D C 0.0940(2) 0.2968(3) 0.5615(5)
C16H C 0.2968(2) 0.5615(3) 0.0940(5)
H12D H 0.06390 0.32560 0.56190
H12H H 0.32560 0.56190 0.06390
H13D H 0.12900 0.31300 0.57720
H13H H 0.31300 0.57720 0.12900
H14D H 0.08220 0.26420 0.58450
H14H H 0.26420 0.58450 0.08220
O2D O 0.11416(14) 0.05925(16) 0.16977(13)
O2H O 0.05925(14) 0.16977(16) 0.11416(13)
O3D O 0.15771(15) 0.06523(14) 0.25578(13)
O3H O 0.06523(15) 0.25578(14) 0.15771(13)
O4D O 0.12213(13) 0.25734(12) 0.28337(12)
O4H O 0.25734(13) 0.28337(12) 0.12213(12)
O5D O 0.17333(13) 0.18223(16) 0.31737(15)
O5H O 0.18223(13) 0.31737(16) 0.17333(15)
Zn1D Zn 0.200202(18) 0.138364(18) 0.250883(18)
Zn1H Zn 0.138364(18) 0.250883(18) 0.200202(18)
#END

data_CSD_CIF_KOGXIO
_audit_creation_date 2009-02-26
_audit_creation_method CSD-ConQuest-V1
_database_code_CSD KOGXIO
_database_code_depnum_ccdc_archive 'CCDC 293442'
_chemical_formula_sum 'C24 H45 N9 O7.5 S3 Sn3'
_chemical_formula_moiety
;
C18 H33 N9 O6 S3 Sn3,1.5(C4 H8 O1)
;
_journal_coden_Cambridge 1350
_journal_volume 10
_journal_year 2008
_journal_page_first 1291
_journal_name_full 'CrystEngComm '
loop_
_publ_author_name
"D.Kovala-Demertzi"
"J.Wiecek"
"J.C.Plakatouras"
"Z.Ciunik"
_chemical_name_systematic
;
tris((\m~2~-Pyruvic acid thiosemicarbazonato)-dimethyl-tin(iv)) 
tetrahydrofuran solvate
;
_chemical_melting_point 448.15
_cell_volume   8143.773
_exptl_crystal_colour 'off-white'
_exptl_crystal_density_diffrn 1.683
_exptl_crystal_description 'block'
_exptl_crystal_preparation 'THF'
_diffrn_ambient_temperature 100
#These two values have been output from a single CSD field.
_refine_ls_R_factor_gt 0.0292
_refine_ls_wR_factor_gt 0.0292
_symmetry_cell_setting cubic
_symmetry_space_group_name_H-M 'I 2 3'
_symmetry_Int_Tables_number 197
loop_
_symmetry_equiv_pos_site_id
_symmetry_equiv_pos_as_xyz
1 x,y,z
2 -x,-y,z
3 -x,y,-z
4 x,-y,-z
5 z,x,y
6 z,-x,-y
7 -z,-x,y
8 -z,x,-y
9 y,z,x
10 -y,z,-x
11 y,-z,-x
12 -y,-z,x
13 1/2+x,1/2+y,1/2+z
14 1/2-x,1/2-y,1/2+z
15 1/2-x,1/2+y,1/2-z
16 1/2+x,1/2-y,1/2-z
17 1/2+z,1/2+x,1/2+y
18 1/2+z,1/2-x,1/2-y
19 1/2-z,1/2-x,1/2+y
20 1/2-z,1/2+x,1/2-y
21 1/2+y,1/2+z,1/2+x
22 1/2-y,1/2+z,1/2-x
23 1/2+y,1/2-z,1/2-x
24 1/2-y,1/2-z,1/2+x
_cell_length_a 20.1191(5)
_cell_length_b 20.1191(5)
_cell_length_c 20.1191(5)
_cell_angle_alpha 90
_cell_angle_beta 90
_cell_angle_gamma 90
_cell_formula_units_Z 8
loop_
_atom_type_symbol
_atom_type_radius_bond
C 0.74
H 0.23
N 0.68
O 0.68
S 1.02
Sn 1.46
loop_
_atom_site_label
_atom_site_type_symbol
_atom_site_fract_x
_atom_site_fract_y
_atom_site_fract_z
Sn1 Sn 0.290695(8) 0.907717(8) 0.221615(8)
S1 S 0.34676(3) 1.01892(3) 0.24352(3)
O1 O 0.28497(9) 0.81668(8) 0.15147(8)
O2 O 0.22904(8) 0.94186(9) 0.32094(8)
N1 N 0.36909(10) 0.91731(10) 0.13844(10)
N2 N 0.41286(10) 0.9686(1) 0.13399(11)
N3 N 0.44825(11) 1.06618(11) 0.17647(11)
H1 H 0.48330 1.05770 0.14750
H2 H 0.44620 1.10400 0.20260
C1 C 0.32339(11) 0.81598(12) 0.10135(12)
C2 C 0.37239(11) 0.87177(11) 0.09289(12)
C3 C 0.41983(13) 0.87177(13) 0.03630(13)
H3 H 0.42440 0.91700 0.01890
H4 H 0.40320 0.84250 0.00110
H5 H 0.46330 0.85580 0.05150
C4 C 0.40539(12) 1.01541(12) 0.18037(12)
C5 C 0.20901(13) 0.94507(13) 0.16790(12)
H6 H 0.17010 0.91690 0.17580
H7 H 0.21950 0.94520 0.12030
H8 H 0.19940 0.99050 0.18250
C6 C 0.34427(13) 0.84355(14) 0.28472(13)
H9 H 0.31820 0.80320 0.29280
H10 H 0.35310 0.86600 0.32700
H11 H 0.38650 0.83160 0.26360
O3 O 0.2865(3) 1.00000 0.00000
C7 C 0.2539(3) 1.0587(4) 0.0360(3)
H12 H 0.26630 1.10170 0.01570
H13 H 0.26510 1.05920 0.08390
C8 C 0.1734(4) 1.0404(4) 0.0233(3)
H14 H 0.15120 1.07430 -0.00240
H15 H 0.14950 1.03550 0.06480
Sn1E Sn 0.221615(8) 0.709305(8) 0.092283(8)
Sn1K Sn 0.092283(8) 0.778385(8) 0.290695(8)
S1E S 0.24352(3) 0.65324(3) -0.01892(3)
S1K S -0.01892(3) 0.75648(3) 0.34676(3)
O1E O 0.15147(9) 0.71503(8) 0.18332(8)
O1K O 0.18332(9) 0.84853(8) 0.28497(8)
O2E O 0.32094(8) 0.77096(9) 0.05814(8)
O2K O 0.05814(8) 0.67906(9) 0.22904(8)
N1E N 0.13844(10) 0.63091(10) 0.08269(10)
N1K N 0.08269(10) 0.86156(10) 0.36909(10)
N2E N 0.13399(10) 0.58714(10) 0.03140(11)
N2K N 0.0314(1) 0.86601(10) 0.41286(11)
N3K N -0.06618(11) 0.82353(11) 0.44825(11)
N3E N 0.17647(11) 0.55175(11) -0.06618(11)
H1K H -0.05770 0.85250 0.48330
H1E H 0.14750 0.51670 -0.05770
H2K H -0.10400 0.79740 0.44620
H2E H 0.20260 0.55380 -0.10400
C1E C 0.10135(11) 0.67661(12) 0.18402(12)
C1K C 0.18402(11) 0.89865(12) 0.32339(12)
C2K C 0.12823(11) 0.90711(11) 0.37239(12)
C2E C 0.09289(11) 0.62761(11) 0.12823(12)
C3K C 0.12823(13) 0.96370(13) 0.41983(13)
C3E C 0.03630(13) 0.58017(13) 0.12823(13)
H3K H 0.08300 0.98110 0.42440
H3E H 0.01890 0.57560 0.08300
H4K H 0.15750 0.99890 0.40320
H4E H 0.00110 0.59680 0.15750
H5K H 0.14420 0.94850 0.46330
H5E H 0.05150 0.53670 0.14420
C4E C 0.18037(12) 0.59461(12) -0.01541(12)
C4K C -0.01541(12) 0.81963(12) 0.40539(12)
C5K C 0.05493(13) 0.83210(13) 0.20901(12)
C5E C 0.16790(13) 0.79099(13) 0.05493(12)
H6K H 0.08310 0.82420 0.17010
H6E H 0.17580 0.82990 0.08310
H7K H 0.05480 0.87970 0.21950
H7E H 0.12030 0.78050 0.05480
H8K H 0.00950 0.81750 0.19940
H8E H 0.18250 0.80060 0.00950
C6K C 0.15645(13) 0.71528(14) 0.34427(13)
C6E C 0.28472(13) 0.65573(14) 0.15645(13)
H9K H 0.19680 0.70720 0.31820
H9E H 0.29280 0.68180 0.19680
H10K H 0.13400 0.67300 0.35310
H10E H 0.32700 0.64690 0.13400
H11K H 0.16840 0.73640 0.38650
H11E H 0.26360 0.61350 0.16840
C7C C 0.2539(3) 0.9413(4) -0.0360(3)
H12C H 0.26630 0.89830 -0.01570
H13C H 0.26510 0.94080 -0.08390
C8C C 0.1734(4) 0.9596(4) -0.0233(3)
H14C H 0.15120 0.92570 0.00240
H15C H 0.14950 0.96450 -0.06480
#END

data_CSD_CIF_OLOGIG
_audit_creation_date 2011-04-07
_audit_creation_method CSD-ConQuest-V1
_database_code_CSD OLOGIG
_database_code_depnum_ccdc_archive 'CCDC 800664'
_chemical_formula_sum 'C92 H92 Cl2 Lu2 N8'
_chemical_formula_moiety
;
C92 H92 Cl2 Lu2 N8
;
_journal_coden_Cambridge 182
_journal_volume 47
_journal_year 2011
_journal_page_first 2574
_journal_name_full 'Chem.Commun. '
loop_
_publ_author_name
"P.Benndorf"
"J.Jenter"
"L.Zielke"
"P.W.Roesky"
_chemical_name_systematic
;
bis(\m~2~-chloro)-tetrakis(N,N'-bis(1-phenylethyl)benzamidinato)-di-lutetium
;
_cell_volume  14939.647
_exptl_crystal_colour 'colorless'
_exptl_crystal_density_diffrn 1.154
_exptl_special_details
;
Absolute configuration

;
_exptl_crystal_description 'prism'
_diffrn_ambient_temperature 150
#These two values have been output from a single CSD field.
_refine_ls_R_factor_gt 0.0349
_refine_ls_wR_factor_gt 0.0349
_symmetry_cell_setting cubic
_symmetry_space_group_name_H-M 'I 2 3'
_symmetry_Int_Tables_number 197
loop_
_symmetry_equiv_pos_site_id
_symmetry_equiv_pos_as_xyz
1 x,y,z
2 z,x,y
3 y,z,x
4 -y,-z,x
5 z,-x,-y
6 -y,z,-x
7 -z,-x,y
8 -z,x,-y
9 y,-z,-x
10 -x,-y,z
11 x,-y,-z
12 -x,y,-z
13 1/2+x,1/2+y,1/2+z
14 1/2+z,1/2+x,1/2+y
15 1/2+y,1/2+z,1/2+x
16 1/2-y,1/2-z,1/2+x
17 1/2+z,1/2-x,1/2-y
18 1/2-y,1/2+z,1/2-x
19 1/2-z,1/2-x,1/2+y
20 1/2-z,1/2+x,1/2-y
21 1/2+y,1/2-z,1/2-x
22 1/2-x,1/2-y,1/2+z
23 1/2+x,1/2-y,1/2-z
24 1/2-x,1/2+y,1/2-z
_cell_length_a 24.629(3)
_cell_length_b 24.629(3)
_cell_length_c 24.629(3)
_cell_angle_alpha 90
_cell_angle_beta 90
_cell_angle_gamma 90
_cell_formula_units_Z 6
loop_
_atom_type_symbol
_atom_type_radius_bond
C 0.68
H 0.23
Cl 0.99
Lu 1.64
N 0.68
loop_
_atom_site_label
_atom_site_type_symbol
_atom_site_fract_x
_atom_site_fract_y
_atom_site_fract_z
C1 C 0.13978(17) 0.40361(16) 0.5040(3)
C2 C 0.17271(19) 0.35271(18) 0.51019(18)
C3 C 0.1541(2) 0.3100(2) 0.5418(2)
H1 H 0.12010 0.31260 0.55990
C4 C 0.1855(3) 0.2630(2) 0.5470(3)
H2 H 0.17310 0.23410 0.56940
C5 C 0.2334(3) 0.2583(3) 0.5204(3)
H3 H 0.25430 0.22600 0.52390
C6 C 0.2520(3) 0.3006(3) 0.4881(3)
H4 H 0.28560 0.29730 0.46950
C7 C 0.2218(2) 0.3474(2) 0.4828(2)
H5 H 0.23450 0.37610 0.46040
C8 C 0.1816(2) 0.4374(2) 0.5885(2)
H6 H 0.21290 0.41450 0.57640
C9 C 0.2033(2) 0.4934(3) 0.6035(2)
H7 H 0.22020 0.51010 0.57150
H8 H 0.23030 0.48990 0.63250
H9 H 0.17320 0.51640 0.61600
C10 C 0.1551(2) 0.4097(2) 0.6375(2)
C11 C 0.1885(4) 0.3790(3) 0.6716(3)
H10 H 0.22620 0.37590 0.66400
C12 C 0.1662(4) 0.3530(4) 0.7170(3)
H11 H 0.18890 0.33240 0.74050
C13 C 0.1121(4) 0.3571(3) 0.7275(3)
H12 H 0.09740 0.33930 0.75840
C14 C 0.0780(3) 0.3871(3) 0.6936(3)
H13 H 0.04020 0.38990 0.70070
C15 C 0.1017(3) 0.4127(3) 0.6490(3)
H14 H 0.07900 0.43340 0.62560
C16 C 0.0958(2) 0.37227(19) 0.4225(2)
H15 H 0.12020 0.34090 0.43060
C17 C 0.0365(3) 0.3515(2) 0.4253(2)
H16 H 0.02990 0.33530 0.46100
H17 H 0.03070 0.32410 0.39700
H18 H 0.01150 0.38190 0.41960
C18 C 0.1110(2) 0.3938(2) 0.3662(2)
C19 C 0.1590(3) 0.3771(2) 0.3419(2)
H19 H 0.18230 0.35270 0.36060
C20 C 0.1737(3) 0.3955(3) 0.2906(3)
H20 H 0.20630 0.38320 0.27400
C21 C 0.1403(3) 0.4318(3) 0.2638(3)
H21 H 0.15010 0.44470 0.22890
C22 C 0.0932(3) 0.4493(3) 0.2873(2)
H22 H 0.07080 0.47500 0.26930
C23 C 0.0781(3) 0.4291(3) 0.3381(2)
H23 H 0.04450 0.44000 0.35350
N1 N 0.14343(17) 0.44321(16) 0.54213(16)
N2 N 0.10519(16) 0.41396(15) 0.46474(15)
Cl1 Cl 0.00000 0.50000 0.43322(5)
Lu1 Lu 0.085155(8) 0.50000 0.50000
C1J C 0.13978(17) 0.59639(16) 0.4960(3)
C1I C -0.13978(17) 0.59639(16) 0.5040(3)
C1K C -0.13978(17) 0.40361(16) 0.4960(3)
C2J C 0.17271(19) 0.64729(18) 0.48981(18)
C2I C -0.17271(19) 0.64729(18) 0.51019(18)
C2K C -0.17271(19) 0.35271(18) 0.48981(18)
C3J C 0.1541(2) 0.6900(2) 0.4582(2)
C3I C -0.1541(2) 0.6900(2) 0.5418(2)
C3K C -0.1541(2) 0.3100(2) 0.4582(2)
H1J H 0.12010 0.68740 0.44010
H1I H -0.12010 0.68740 0.55990
H1K H -0.12010 0.31260 0.44010
C4J C 0.1855(3) 0.7370(2) 0.4530(3)
C4I C -0.1855(3) 0.7370(2) 0.5470(3)
C4K C -0.1855(3) 0.2630(2) 0.4530(3)
H2J H 0.17310 0.76590 0.43060
H2I H -0.17310 0.76590 0.56940
H2K H -0.17310 0.23410 0.43060
C5J C 0.2334(3) 0.7417(3) 0.4796(3)
C5I C -0.2334(3) 0.7417(3) 0.5204(3)
C5K C -0.2334(3) 0.2583(3) 0.4796(3)
H3J H 0.25430 0.77400 0.47610
H3I H -0.25430 0.77400 0.52390
H3K H -0.25430 0.22600 0.47610
C6J C 0.2520(3) 0.6994(3) 0.5119(3)
C6I C -0.2520(3) 0.6994(3) 0.4881(3)
C6K C -0.2520(3) 0.3006(3) 0.5119(3)
H4J H 0.28560 0.70270 0.53050
H4I H -0.28560 0.70270 0.46950
H4K H -0.28560 0.29730 0.53050
C7J C 0.2218(2) 0.6526(2) 0.5172(2)
C7I C -0.2218(2) 0.6526(2) 0.4828(2)
C7K C -0.2218(2) 0.3474(2) 0.5172(2)
H5J H 0.23450 0.62390 0.53960
H5I H -0.23450 0.62390 0.46040
H5K H -0.23450 0.37610 0.53960
C8K C -0.1816(2) 0.4374(2) 0.4115(2)
C8I C -0.1816(2) 0.5626(2) 0.5885(2)
C8J C 0.1816(2) 0.5626(2) 0.4115(2)
H6K H -0.21290 0.41450 0.42360
H6I H -0.21290 0.58550 0.57640
H6J H 0.21290 0.58550 0.42360
C9K C -0.2033(2) 0.4934(3) 0.3965(2)
C9I C -0.2033(2) 0.5066(3) 0.6035(2)
C9J C 0.2033(2) 0.5066(3) 0.3965(2)
H7K H -0.22020 0.51010 0.42850
H7I H -0.22020 0.48990 0.57150
H7J H 0.22020 0.48990 0.42850
H8K H -0.23030 0.48990 0.36750
H8I H -0.23030 0.51010 0.63250
H8J H 0.23030 0.51010 0.36750
H9K H -0.17320 0.51640 0.38400
H9I H -0.17320 0.48360 0.61600
H9J H 0.17320 0.48360 0.38400
C10K C -0.1551(2) 0.4097(2) 0.3625(2)
C10I C -0.1551(2) 0.5903(2) 0.6375(2)
C10J C 0.1551(2) 0.5903(2) 0.3625(2)
C11K C -0.1885(4) 0.3790(3) 0.3284(3)
C11I C -0.1885(4) 0.6210(3) 0.6716(3)
C11J C 0.1885(4) 0.6210(3) 0.3284(3)
H10K H -0.22620 0.37590 0.33600
H10I H -0.22620 0.62410 0.66400
H10J H 0.22620 0.62410 0.33600
C12K C -0.1662(4) 0.3530(4) 0.2830(3)
C12I C -0.1662(4) 0.6470(4) 0.7170(3)
C12J C 0.1662(4) 0.6470(4) 0.2830(3)
H11K H -0.18890 0.33240 0.25950
H11I H -0.18890 0.66760 0.74050
H11J H 0.18890 0.66760 0.25950
C13K C -0.1121(4) 0.3571(3) 0.2725(3)
C13I C -0.1121(4) 0.6429(3) 0.7275(3)
C13J C 0.1121(4) 0.6429(3) 0.2725(3)
H12K H -0.09740 0.33930 0.24160
H12I H -0.09740 0.66070 0.75840
H12J H 0.09740 0.66070 0.24160
C14K C -0.0780(3) 0.3871(3) 0.3064(3)
C14I C -0.0780(3) 0.6129(3) 0.6936(3)
C14J C 0.0780(3) 0.6129(3) 0.3064(3)
H13K H -0.04020 0.38990 0.29930
H13I H -0.04020 0.61010 0.70070
H13J H 0.04020 0.61010 0.29930
C15K C -0.1017(3) 0.4127(3) 0.3510(3)
C15I C -0.1017(3) 0.5873(3) 0.6490(3)
C15J C 0.1017(3) 0.5873(3) 0.3510(3)
H14K H -0.07900 0.43340 0.37440
H14I H -0.07900 0.56660 0.62560
H14J H 0.07900 0.56660 0.37440
C16J C 0.0958(2) 0.62773(19) 0.5775(2)
C16I C -0.0958(2) 0.62773(19) 0.4225(2)
C16K C -0.0958(2) 0.37227(19) 0.5775(2)
H15J H 0.12020 0.65910 0.56940
H15I H -0.12020 0.65910 0.43060
H15K H -0.12020 0.34090 0.56940
C17J C 0.0365(3) 0.6485(2) 0.5747(2)
C17I C -0.0365(3) 0.6485(2) 0.4253(2)
C17K C -0.0365(3) 0.3515(2) 0.5747(2)
H16J H 0.02990 0.66470 0.53900
H16I H -0.02990 0.66470 0.46100
H16K H -0.02990 0.33530 0.53900
H17J H 0.03070 0.67590 0.60300
H17I H -0.03070 0.67590 0.39700
H17K H -0.03070 0.32410 0.60300
H18J H 0.01150 0.61810 0.58040
H18I H -0.01150 0.61810 0.41960
H18K H -0.01150 0.38190 0.58040
C18J C 0.1110(2) 0.6062(2) 0.6338(2)
C18I C -0.1110(2) 0.6062(2) 0.3662(2)
C18K C -0.1110(2) 0.3938(2) 0.6338(2)
C19J C 0.1590(3) 0.6229(2) 0.6581(2)
C19I C -0.1590(3) 0.6229(2) 0.3419(2)
C19K C -0.1590(3) 0.3771(2) 0.6581(2)
H19J H 0.18230 0.64730 0.63940
H19I H -0.18230 0.64730 0.36060
H19K H -0.18230 0.35270 0.63940
C20J C 0.1737(3) 0.6045(3) 0.7094(3)
C20I C -0.1737(3) 0.6045(3) 0.2906(3)
C20K C -0.1737(3) 0.3955(3) 0.7094(3)
H20J H 0.20630 0.61680 0.72600
H20I H -0.20630 0.61680 0.27400
H20K H -0.20630 0.38320 0.72600
C21J C 0.1403(3) 0.5682(3) 0.7362(3)
C21I C -0.1403(3) 0.5682(3) 0.2638(3)
C21K C -0.1403(3) 0.4318(3) 0.7362(3)
H21J H 0.15010 0.55530 0.77110
H21I H -0.15010 0.55530 0.22890
H21K H -0.15010 0.44470 0.77110
C22J C 0.0932(3) 0.5507(3) 0.7127(2)
C22I C -0.0932(3) 0.5507(3) 0.2873(2)
C22K C -0.0932(3) 0.4493(3) 0.7127(2)
H22J H 0.07080 0.52500 0.73070
H22I H -0.07080 0.52500 0.26930
H22K H -0.07080 0.47500 0.73070
C23J C 0.0781(3) 0.5709(3) 0.6619(2)
C23I C -0.0781(3) 0.5709(3) 0.3381(2)
C23K C -0.0781(3) 0.4291(3) 0.6619(2)
H23J H 0.04450 0.56000 0.64650
H23I H -0.04450 0.56000 0.35350
H23K H -0.04450 0.44000 0.64650
N1J N 0.14343(17) 0.55679(16) 0.45787(16)
N1I N -0.14343(17) 0.55679(16) 0.54213(16)
N1K N -0.14343(17) 0.44321(16) 0.45787(16)
N2J N 0.10519(16) 0.58604(15) 0.53526(15)
N2I N -0.10519(16) 0.58604(15) 0.46474(15)
N2K N -0.10519(16) 0.41396(15) 0.53526(15)
Cl1J Cl 0.00000 0.50000 0.56678(5)
Lu1I Lu -0.085155(8) 0.50000 0.50000
#END

data_CSD_CIF_OVEHAB
_audit_creation_date 2021-06-10
_audit_creation_method CSD-ConQuest-V1
_database_code_CSD OVEHAB
_database_code_depnum_ccdc_archive 'CCDC 2058651'
_chemical_formula_sum 'C96 H108 P4 Pd1'
_chemical_formula_moiety
;
C96 H108 P4 Pd1
;
_journal_coden_Cambridge 9
_journal_volume 60
_journal_year 2021
_journal_page_first 9516
_journal_name_full 'Inorg.Chem. '
loop_
_publ_author_name
"D.Kakizoe"
"M.Nishikawa"
"T.Ohkubo"
"Masashi Sanga"
"M.Iwamura"
"K.Nozaki"
"T.Tsubomura"
_chemical_name_systematic
;
tetrakis(tris(3,5-dimethylphenyl)phosphine-)palladium(0)
;
_cell_volume   4044.455
_exptl_crystal_colour 'colorless'
_exptl_crystal_density_diffrn 1.225
_exptl_special_details
;
Luminescent
Air-sensitive

;
_exptl_crystal_description 'prism'
_diffrn_ambient_temperature 301
#These two values have been output from a single CSD field.
_refine_ls_R_factor_gt 0.0304
_refine_ls_wR_factor_gt 0.0304
_symmetry_cell_setting cubic
_symmetry_space_group_name_H-M 'I 2 3'
_symmetry_Int_Tables_number 197
loop_
_symmetry_equiv_pos_site_id
_symmetry_equiv_pos_as_xyz
1 x,y,z
2 z,x,y
3 y,z,x
4 x,-y,-z
5 z,-x,-y
6 y,-z,-x
7 -x,y,-z
8 -z,x,-y
9 -y,z,-x
10 -x,-y,z
11 -z,-x,y
12 -y,-z,x
13 1/2+x,1/2+y,1/2+z
14 1/2+z,1/2+x,1/2+y
15 1/2+y,1/2+z,1/2+x
16 1/2+x,1/2-y,1/2-z
17 1/2+z,1/2-x,1/2-y
18 1/2+y,1/2-z,1/2-x
19 1/2-x,1/2+y,1/2-z
20 1/2-z,1/2+x,1/2-y
21 1/2-y,1/2+z,1/2-x
22 1/2-x,1/2-y,1/2+z
23 1/2-z,1/2-x,1/2+y
24 1/2-y,1/2-z,1/2+x
_cell_length_a 15.9326(7)
_cell_length_b 15.9326(7)
_cell_length_c 15.9326(7)
_cell_angle_alpha 90
_cell_angle_beta 90
_cell_angle_gamma 90
_cell_formula_units_Z 2
loop_
_atom_type_symbol
_atom_type_radius_bond
C 0.68
H 0.23
P 1.05
Pd 1.39
loop_
_atom_site_label
_atom_site_type_symbol
_atom_site_fract_x
_atom_site_fract_y
_atom_site_fract_z
Pd1 Pd 1.00000 0.00000 1.00000
P1 P 0.91164(4) -0.08836(4) 0.91164(4)
C1 C 0.94039(18) -0.09920(18) 0.79926(19)
C2 C 0.9083(2) -0.1130(2) 0.6513(2)
C3 C 0.8821(2) -0.1041(2) 0.73411(19)
H1 H 0.82500 -0.10150 0.74620
C4 C 1.02434(18) -0.1039(2) 0.77990(19)
H2 H 1.06340 -0.10010 0.82310
C5 C 1.0532(2) -0.1141(2) 0.6978(2)
C6 C 0.9933(3) -0.1189(2) 0.63483(18)
H3 H 1.01080 -0.12640 0.57970
C7 C 1.1458(2) -0.1180(3) 0.6798(3)
H4 H 1.17650 -0.11360 0.73140
H5 H 1.15880 -0.17040 0.65300
H6 H 1.16110 -0.07250 0.64340
C8 C 0.8453(3) -0.1160(4) 0.5812(3)
H7 H 0.78970 -0.11100 0.60400
H8 H 0.85550 -0.07050 0.54300
H9 H 0.85040 -0.16840 0.55190
C1A C 0.79926(18) -0.05961(18) 0.90080(19)
C2A C 0.6513(2) -0.0917(2) 0.8870(2)
C3A C 0.73411(20) -0.1179(2) 0.89590(19)
H1A H 0.74620 -0.17500 0.89850
C4A C 0.77990(18) 0.02434(20) 0.89610(19)
H2A H 0.82310 0.06340 0.89990
C5A C 0.6978(2) 0.0532(2) 0.8859(2)
C6A C 0.63483(30) -0.0067(2) 0.88110(18)
H3A H 0.57970 0.01080 0.87360
C7A C 0.6798(2) 0.1458(3) 0.8820(3)
H4A H 0.73140 0.17650 0.88640
H5A H 0.65300 0.15880 0.82960
H6A H 0.64340 0.16110 0.92750
C8A C 0.5812(3) -0.1547(4) 0.8840(3)
H7A H 0.60400 -0.21030 0.88900
H8A H 0.54300 -0.14450 0.92950
H9A H 0.55190 -0.14960 0.83160
C1B C 0.90080(18) -0.20074(18) 0.94039(19)
C2B C 0.8870(2) -0.3487(2) 0.9083(2)
C3B C 0.8959(2) -0.26589(20) 0.88210(19)
H1B H 0.89850 -0.25380 0.82500
C4B C 0.89610(18) -0.2201(2) 1.02434(19)
H2B H 0.89990 -0.17690 1.06340
C5B C 0.8859(2) -0.3022(2) 1.0532(2)
C6B C 0.8811(3) -0.36517(20) 0.99330(18)
H3B H 0.87360 -0.42030 1.01080
C7B C 0.8820(2) -0.3202(3) 1.1458(3)
H4B H 0.88640 -0.26860 1.17650
H5B H 0.82960 -0.34700 1.15880
H6B H 0.92750 -0.35660 1.16110
C8B C 0.8840(3) -0.4188(4) 0.8453(3)
H7B H 0.88900 -0.39600 0.78970
H8B H 0.92950 -0.45700 0.85550
H9B H 0.83160 -0.44810 0.85040
P1C P 0.91164(4) 0.08836(4) 1.08836(4)
C1C C 0.94039(18) 0.09920(18) 1.20074(19)
C2C C 0.9083(2) 0.1130(2) 1.3487(2)
C3C C 0.8821(2) 0.1041(2) 1.26589(19)
H1C H 0.82500 0.10150 1.25380
C4C C 1.02434(18) 0.1039(2) 1.22010(19)
H2C H 1.06340 0.10010 1.17690
C5C C 1.0532(2) 0.1141(2) 1.3022(2)
C6C C 0.9933(3) 0.1189(2) 1.36517(18)
H3C H 1.01080 0.12640 1.42030
C7C C 1.1458(2) 0.1180(3) 1.3202(3)
H4C H 1.17650 0.11360 1.26860
H5C H 1.15880 0.17040 1.34700
H6C H 1.16110 0.07250 1.35660
C8C C 0.8453(3) 0.1160(4) 1.4188(3)
H7C H 0.78970 0.11100 1.39600
H8C H 0.85550 0.07050 1.45700
H9C H 0.85040 0.16840 1.44810
C1D C 0.79926(18) 0.05961(18) 1.09920(19)
C2D C 0.6513(2) 0.0917(2) 1.1130(2)
C3D C 0.73411(20) 0.1179(2) 1.10410(19)
H1D H 0.74620 0.17500 1.10150
C4D C 0.77990(18) -0.02434(20) 1.10390(19)
H2D H 0.82310 -0.06340 1.10010
C5D C 0.6978(2) -0.0532(2) 1.1141(2)
C6D C 0.63483(30) 0.0067(2) 1.11890(18)
H3D H 0.57970 -0.01080 1.12640
C7D C 0.6798(2) -0.1458(3) 1.1180(3)
H4D H 0.73140 -0.17650 1.11360
H5D H 0.65300 -0.15880 1.17040
H6D H 0.64340 -0.16110 1.07250
C8D C 0.5812(3) 0.1547(4) 1.1160(3)
H7D H 0.60400 0.21030 1.11100
H8D H 0.54300 0.14450 1.07050
H9D H 0.55190 0.14960 1.16840
C1E C 0.90080(18) 0.20074(18) 1.05961(19)
C2E C 0.8870(2) 0.3487(2) 1.0917(2)
C3E C 0.8959(2) 0.26589(20) 1.11790(19)
H1E H 0.89850 0.25380 1.17500
C4E C 0.89610(18) 0.2201(2) 0.97566(19)
H2E H 0.89990 0.17690 0.93660
C5E C 0.8859(2) 0.3022(2) 0.9468(2)
C6E C 0.8811(3) 0.36517(20) 1.00670(18)
H3E H 0.87360 0.42030 0.98920
C7E C 0.8820(2) 0.3202(3) 0.8542(3)
H4E H 0.88640 0.26860 0.82350
H5E H 0.82960 0.34700 0.84120
H6E H 0.92750 0.35660 0.83890
C8E C 0.8840(3) 0.4188(4) 1.1547(3)
H7E H 0.88900 0.39600 1.21030
H8E H 0.92950 0.45700 1.14450
H9E H 0.83160 0.44810 1.14960
P1F P 1.08836(4) -0.08836(4) 1.08836(4)
C1F C 1.05961(18) -0.09920(18) 1.20074(19)
C2F C 1.0917(2) -0.1130(2) 1.3487(2)
C3F C 1.1179(2) -0.1041(2) 1.26589(19)
H1F H 1.17500 -0.10150 1.25380
C4F C 0.97566(18) -0.1039(2) 1.22010(19)
H2F H 0.93660 -0.10010 1.17690
C5F C 0.9468(2) -0.1141(2) 1.3022(2)
C6F C 1.0067(3) -0.1189(2) 1.36517(18)
H3F H 0.98920 -0.12640 1.42030
C7F C 0.8542(2) -0.1180(3) 1.3202(3)
H4F H 0.82350 -0.11360 1.26860
H5F H 0.84120 -0.17040 1.34700
H6F H 0.83890 -0.07250 1.35660
C8F C 1.1547(3) -0.1160(4) 1.4188(3)
H7F H 1.21030 -0.11100 1.39600
H8F H 1.14450 -0.07050 1.45700
H9F H 1.14960 -0.16840 1.44810
C1G C 1.20074(18) -0.05961(18) 1.09920(19)
C2G C 1.3487(2) -0.0917(2) 1.1130(2)
C3G C 1.26589(20) -0.1179(2) 1.10410(19)
H1G H 1.25380 -0.17500 1.10150
C4G C 1.22010(18) 0.02434(20) 1.10390(19)
H2G H 1.17690 0.06340 1.10010
C5G C 1.3022(2) 0.0532(2) 1.1141(2)
C6G C 1.36517(30) -0.0067(2) 1.11890(18)
H3G H 1.42030 0.01080 1.12640
C7G C 1.3202(2) 0.1458(3) 1.1180(3)
H4G H 1.26860 0.17650 1.11360
H5G H 1.34700 0.15880 1.17040
H6G H 1.35660 0.16110 1.07250
C8G C 1.4188(3) -0.1547(4) 1.1160(3)
H7G H 1.39600 -0.21030 1.11100
H8G H 1.45700 -0.14450 1.07050
H9G H 1.44810 -0.14960 1.16840
C1H C 1.09920(18) -0.20074(18) 1.05961(19)
C2H C 1.1130(2) -0.3487(2) 1.0917(2)
C3H C 1.1041(2) -0.26589(20) 1.11790(19)
H1H H 1.10150 -0.25380 1.17500
C4H C 1.10390(18) -0.2201(2) 0.97566(19)
H2H H 1.10010 -0.17690 0.93660
C5H C 1.1141(2) -0.3022(2) 0.9468(2)
C6H C 1.1189(3) -0.36517(20) 1.00670(18)
H3H H 1.12640 -0.42030 0.98920
C7H C 1.1180(2) -0.3202(3) 0.8542(3)
H4H H 1.11360 -0.26860 0.82350
H5H H 1.17040 -0.34700 0.84120
H6H H 1.07250 -0.35660 0.83890
C8H C 1.1160(3) -0.4188(4) 1.1547(3)
H7H H 1.11100 -0.39600 1.21030
H8H H 1.07050 -0.45700 1.14450
H9H H 1.16840 -0.44810 1.14960
P1I P 1.08836(4) 0.08836(4) 0.91164(4)
C1I C 1.05961(18) 0.09920(18) 0.79926(19)
C2I C 1.0917(2) 0.1130(2) 0.6513(2)
C3I C 1.1179(2) 0.1041(2) 0.73411(19)
H1I H 1.17500 0.10150 0.74620
C4I C 0.97566(18) 0.1039(2) 0.77990(19)
H2I H 0.93660 0.10010 0.82310
C5I C 0.9468(2) 0.1141(2) 0.6978(2)
C6I C 1.0067(3) 0.1189(2) 0.63483(18)
H3I H 0.98920 0.12640 0.57970
C7I C 0.8542(2) 0.1180(3) 0.6798(3)
H4I H 0.82350 0.11360 0.73140
H5I H 0.84120 0.17040 0.65300
H6I H 0.83890 0.07250 0.64340
C8I C 1.1547(3) 0.1160(4) 0.5812(3)
H7I H 1.21030 0.11100 0.60400
H8I H 1.14450 0.07050 0.54300
H9I H 1.14960 0.16840 0.55190
C1J C 1.20074(18) 0.05961(18) 0.90080(19)
C2J C 1.3487(2) 0.0917(2) 0.8870(2)
C3J C 1.26589(20) 0.1179(2) 0.89590(19)
H1J H 1.25380 0.17500 0.89850
C4J C 1.22010(18) -0.02434(20) 0.89610(19)
H2J H 1.17690 -0.06340 0.89990
C5J C 1.3022(2) -0.0532(2) 0.8859(2)
C6J C 1.36517(30) 0.0067(2) 0.88110(18)
H3J H 1.42030 -0.01080 0.87360
C7J C 1.3202(2) -0.1458(3) 0.8820(3)
H4J H 1.26860 -0.17650 0.88640
H5J H 1.34700 -0.15880 0.82960
H6J H 1.35660 -0.16110 0.92750
C8J C 1.4188(3) 0.1547(4) 0.8840(3)
H7J H 1.39600 0.21030 0.88900
H8J H 1.45700 0.14450 0.92950
H9J H 1.44810 0.14960 0.83160
C1K C 1.09920(18) 0.20074(18) 0.94039(19)
C2K C 1.1130(2) 0.3487(2) 0.9083(2)
C3K C 1.1041(2) 0.26589(20) 0.88210(19)
H1K H 1.10150 0.25380 0.82500
C4K C 1.10390(18) 0.2201(2) 1.02434(19)
H2K H 1.10010 0.17690 1.06340
C5K C 1.1141(2) 0.3022(2) 1.0532(2)
C6K C 1.1189(3) 0.36517(20) 0.99330(18)
H3K H 1.12640 0.42030 1.01080
C7K C 1.1180(2) 0.3202(3) 1.1458(3)
H4K H 1.11360 0.26860 1.17650
H5K H 1.17040 0.34700 1.15880
H6K H 1.07250 0.35660 1.16110
C8K C 1.1160(3) 0.4188(4) 0.8453(3)
H7K H 1.11100 0.39600 0.78970
H8K H 1.07050 0.45700 0.85550
H9K H 1.16840 0.44810 0.85040
#END

data_CSD_CIF_PAVTAK
_audit_creation_date 2017-06-20
_audit_creation_method CSD-ConQuest-V1
_database_code_CSD PAVTAK
_database_code_depnum_ccdc_archive 'CCDC 1540668'
_chemical_formula_sum 'C12 H42 N3 Na2 O28 V6'
_chemical_formula_moiety
;
C12 H24 N3 O19 V6 2-,9(H2 O1),2(Na1 1+)
;
_journal_coden_Cambridge 222
_journal_volume 46
_journal_year 2017
_journal_page_first 8505
_journal_name_full 'Dalton Trans. '
loop_
_publ_author_name
"Xunliang Hu"
"Zicheng Xiao"
"Bo Huang"
"Xiaokang Hu"
"Min Cheng"
"Xinjun Lin"
"Pingfan Wu"
"Yongge Wei"
_chemical_name_systematic
;
di-sodium 
tris(\m-2-amino-2-(oxidomethyl)propane-1,3-diolato)-tetrakis(\m-oxo)-hexaoxo-t
ri-vanadium(iv)-tri-vanadium(v) nonahydrate
;
_cell_volume   7042.558
_exptl_crystal_colour 'dark green'
_exptl_crystal_description 'block'
_diffrn_ambient_temperature 293
#These two values have been output from a single CSD field.
_refine_ls_R_factor_gt 0.0381
_refine_ls_wR_factor_gt 0.0381
_symmetry_cell_setting cubic
_symmetry_space_group_name_H-M 'I 2 3'
_symmetry_Int_Tables_number 197
loop_
_symmetry_equiv_pos_site_id
_symmetry_equiv_pos_as_xyz
1 x,y,z
2 -x,-y,z
3 -x,y,-z
4 x,-y,-z
5 z,x,y
6 z,-x,-y
7 -z,-x,y
8 -z,x,-y
9 y,z,x
10 -y,z,-x
11 y,-z,-x
12 -y,-z,x
13 1/2+x,1/2+y,1/2+z
14 1/2-x,1/2-y,1/2+z
15 1/2-x,1/2+y,1/2-z
16 1/2+x,1/2-y,1/2-z
17 1/2+z,1/2+x,1/2+y
18 1/2+z,1/2-x,1/2-y
19 1/2-z,1/2-x,1/2+y
20 1/2-z,1/2+x,1/2-y
21 1/2+y,1/2+z,1/2+x
22 1/2-y,1/2+z,1/2-x
23 1/2+y,1/2-z,1/2-x
24 1/2-y,1/2-z,1/2+x
_cell_length_a 19.168(2)
_cell_length_b 19.168(2)
_cell_length_c 19.168(2)
_cell_angle_alpha 90
_cell_angle_beta 90
_cell_angle_gamma 90
_cell_formula_units_Z 8
loop_
_atom_type_symbol
_atom_type_radius_bond
C 0.68
H 0.23
N 0.68
Na 1.66
O 0.68
V 1.53
loop_
_atom_site_label
_atom_site_type_symbol
_atom_site_fract_x
_atom_site_fract_y
_atom_site_fract_z
V1 V 0.16234(6) 0.79169(6) 0.29392(6)
V2 V 0.31697(5) 0.77125(6) 0.36317(6)
O1 O 0.2685(2) 0.7315(2) 0.2685(2)
O2 O 0.2803(2) 0.6792(2) 0.3984(2)
O3 O 0.1472(2) 0.6984(2) 0.3402(2)
O4 O 0.2220(2) 0.8111(2) 0.3797(2)
O5 O 0.1383(2) 0.7495(2) 0.2121(3)
O6 O 0.3552(2) 0.7979(3) 0.4330(2)
O7 O 0.0926(2) 0.8284(3) 0.3194(3)
C1 C 0.2444(4) 0.6802(4) 0.4639(4)
H1 H 0.27520 0.69920 0.49940
H2 H 0.23290 0.63280 0.47720
C2 C 0.1934(4) 0.8011(4) 0.4477(3)
H3 H 0.15080 0.82810 0.45210
H4 H 0.22620 0.81780 0.48240
C3 C 0.1773(4) 0.7238(3) 0.4615(3)
N1 N 0.1451(3) 0.7211(4) 0.5326(3)
H5 H 0.09910 0.71600 0.52840
H6 H 0.16260 0.68500 0.55580
C4 C 0.1236(4) 0.6956(4) 0.4104(3)
H7 H 0.11290 0.64760 0.42230
H8 H 0.08090 0.72250 0.41460
Na1 Na 0.39157(19) 0.60843(19) 0.39157(19)
O8 O 0.3212(4) 0.5075(4) 0.4271(4)
H9 H 0.36810 0.51410 0.44690
H10 H 0.28280 0.51470 0.39360
Na2 Na 0.3813(3) 0.3813(3) 0.3813(3)
V1E V 0.29392(6) 0.83766(6) 0.20831(6)
V2E V 0.36317(5) 0.68303(6) 0.22875(6)
O2E O 0.3984(2) 0.7197(2) 0.3208(2)
O3E O 0.3402(2) 0.8528(2) 0.3016(2)
O4E O 0.3797(2) 0.7780(2) 0.1889(2)
O5E O 0.2121(2) 0.8617(2) 0.2505(3)
O6E O 0.4330(2) 0.6448(3) 0.2021(2)
O7E O 0.3194(2) 0.9074(3) 0.1716(3)
C1E C 0.4639(4) 0.7556(4) 0.3198(4)
H1E H 0.49940 0.72480 0.30080
H2E H 0.47720 0.76710 0.36720
C2E C 0.4477(4) 0.8066(4) 0.1989(3)
H3E H 0.45210 0.84920 0.17190
H4E H 0.48240 0.77380 0.18220
C3E C 0.4615(4) 0.8227(3) 0.2762(3)
N1E N 0.5326(3) 0.8549(4) 0.2789(3)
H5E H 0.52840 0.90090 0.28400
H6E H 0.55580 0.83740 0.31500
C4E C 0.4104(4) 0.8764(4) 0.3044(3)
H7E H 0.42230 0.88710 0.35240
H8E H 0.41460 0.91910 0.27750
V1K V 0.20831(6) 0.70608(6) 0.16234(6)
V2K V 0.22875(5) 0.63683(6) 0.31697(6)
O2K O 0.3208(2) 0.6016(2) 0.2803(2)
O3K O 0.3016(2) 0.6598(2) 0.1472(2)
O4K O 0.1889(2) 0.6203(2) 0.2220(2)
O5K O 0.2505(2) 0.7879(2) 0.1383(3)
O6K O 0.2021(2) 0.5670(3) 0.3552(2)
O7K O 0.1716(2) 0.6806(3) 0.0926(3)
C1K C 0.3198(4) 0.5361(4) 0.2444(4)
H1K H 0.30080 0.50060 0.27520
H2K H 0.36720 0.52280 0.23290
C2K C 0.1989(4) 0.5523(4) 0.1934(3)
H3K H 0.17190 0.54790 0.15080
H4K H 0.18220 0.51760 0.22620
C3K C 0.2762(4) 0.5385(3) 0.1773(3)
N1K N 0.2789(3) 0.4674(4) 0.1451(3)
H5K H 0.28400 0.47160 0.09910
H6K H 0.31500 0.44420 0.16260
C4K C 0.3044(4) 0.5896(4) 0.1236(3)
H7K H 0.35240 0.57770 0.11290
H8K H 0.27750 0.58540 0.08090
O8E O 0.4271(4) 0.6788(4) 0.4925(4)
H9E H 0.44690 0.63190 0.48590
H10E H 0.39360 0.71720 0.48530
O8K O 0.4925(4) 0.5729(4) 0.3212(4)
H9K H 0.48590 0.55310 0.36810
H10K H 0.48530 0.60640 0.28280
#END

data_CSD_CIF_PIPNAD
_audit_creation_date 1994-11-22
_audit_creation_method CSD-ConQuest-V1
_database_code_CSD PIPNAD
_database_code_depnum_ccdc_archive 'CCDC 112245'
_database_code_depnum_ccdc_fiz 'CSD 400527'
_chemical_formula_sum 'C5 F9 N1 S3'
_chemical_formula_moiety
;
C5 F9 N1 S3
;
_journal_coden_Cambridge 48
_journal_volume 127
_journal_year 1994
_journal_page_first 449
_journal_name_full 'Chem.Ber. '
loop_
_publ_author_name
"R.Boese"
"A.Haas"
"M.Lieb"
"U.Roeske"
_chemical_name_systematic
;
tris(Trifluoromethylsulfanyl)acetonitrile
;
_chemical_melting_point 283.15
_cell_volume   2197.000
_exptl_crystal_colour 'colorless'
_exptl_crystal_density_diffrn 2.063
_exptl_special_details
;
coordinates of N, C1 and C2 appear to be in error

;
_diffrn_ambient_temperature 225
#These two values have been output from a single CSD field.
_refine_ls_R_factor_gt 0.0375
_refine_ls_wR_factor_gt 0.0375
_symmetry_cell_setting cubic
_symmetry_space_group_name_H-M 'I 2 3'
_symmetry_Int_Tables_number 197
loop_
_symmetry_equiv_pos_site_id
_symmetry_equiv_pos_as_xyz
1 x,y,z
2 -x,-y,z
3 x,-y,-z
4 z,x,y
5 -x,y,-z
6 -z,-x,y
7 z,-x,-y
8 -z,x,-y
9 y,z,x
10 y,-z,-x
11 -y,z,-x
12 -y,-z,x
13 1/2+x,1/2+y,1/2+z
14 1/2-x,1/2-y,1/2+z
15 1/2+x,1/2-y,1/2-z
16 1/2+z,1/2+x,1/2+y
17 1/2-x,1/2+y,1/2-z
18 1/2-z,1/2-x,1/2+y
19 1/2+z,1/2-x,1/2-y
20 1/2-z,1/2+x,1/2-y
21 1/2+y,1/2+z,1/2+x
22 1/2+y,1/2-z,1/2-x
23 1/2-y,1/2+z,1/2-x
24 1/2-y,1/2-z,1/2+x
_cell_length_a 13.0
_cell_length_b 13.0
_cell_length_c 13.0
_cell_angle_alpha 90
_cell_angle_beta 90
_cell_angle_gamma 90
_cell_formula_units_Z 8
loop_
_atom_type_symbol
_atom_type_radius_bond
C 0.68
F 0.64
S 1.02
loop_
_atom_site_label
_atom_site_type_symbol
_atom_site_fract_x
_atom_site_fract_y
_atom_site_fract_z
S1 S 0.78792(6) 0.17113(6) 0.03718(5)
C1 C 0.64829(24) 0.15802(23) 0.04599(24)
F1 F 0.61582(20) 0.13749(19) -0.04763(19)
F2 F 0.60323(17) 0.24383(18) 0.07627(20)
F3 F 0.61859(17) 0.08532(20) 0.10870(19)
#END

data_CSD_CIF_POSHOU01
_audit_creation_date 2000-09-12
_audit_creation_method CSD-ConQuest-V1
_database_code_CSD POSHOU01
_database_code_depnum_ccdc_archive 'CCDC 117020'
_chemical_formula_sum 'C504 N24 S36'
_chemical_formula_moiety
;
6(C4 N4 S6),8(C60)
;
_journal_coeditor_code "IUCr CF0010"
_journal_coden_Cambridge 622
_journal_volume 56
_journal_year 2000
_journal_page_first 497
_journal_name_full 'Acta Crystallogr.,Sect.B:Struct.Sci. '
loop_
_publ_author_name
"A.Penicaud"
"K.Boubekeur"
"A.I.Kotov"
"E.B.Yagubskii"
_chemical_name_systematic
;
octakis(C60fullerene) hexakis(3,3',4,4'-tetrathio-bis(1,2,5-thiadiazole))
;
_cell_volume   6696.976
_exptl_crystal_colour 'black'
_exptl_crystal_density_diffrn 1.87
_exptl_crystal_description 'plate-like'
_diffrn_ambient_temperature 100
#These two values have been output from a single CSD field.
_refine_ls_R_factor_gt 0.0456
_refine_ls_wR_factor_gt 0.0456
_symmetry_cell_setting cubic
_symmetry_space_group_name_H-M 'I 2 3'
_symmetry_Int_Tables_number 197
loop_
_symmetry_equiv_pos_site_id
_symmetry_equiv_pos_as_xyz
1 x,y,z
2 -x,-y,z
3 -x,y,-z
4 x,-y,-z
5 z,x,y
6 z,-x,-y
7 -z,-x,y
8 -z,x,-y
9 y,z,x
10 -y,z,-x
11 y,-z,-x
12 -y,-z,x
13 1/2+x,1/2+y,1/2+z
14 1/2-x,1/2-y,1/2+z
15 1/2-x,1/2+y,1/2-z
16 1/2+x,1/2-y,1/2-z
17 1/2+z,1/2+x,1/2+y
18 1/2+z,1/2-x,1/2-y
19 1/2-z,1/2-x,1/2+y
20 1/2-z,1/2+x,1/2-y
21 1/2+y,1/2+z,1/2+x
22 1/2-y,1/2+z,1/2-x
23 1/2+y,1/2-z,1/2-x
24 1/2-y,1/2-z,1/2+x
_cell_length_a 18.8492(10)
_cell_length_b 18.8492(10)
_cell_length_c 18.8492(10)
_cell_angle_alpha 90
_cell_angle_beta 90
_cell_angle_gamma 90
_cell_formula_units_Z 1
loop_
_atom_type_symbol
_atom_type_radius_bond
C 0.68
N 0.68
S 1.02
loop_
_atom_site_label
_atom_site_type_symbol
_atom_site_fract_x
_atom_site_fract_y
_atom_site_fract_z
S1 S 1.00000 0.50000 0.77492(8)
S2 S 1.08755(6) 0.54325(7) 0.96721(6)
N1 N 1.0595(2) 0.5267(2) 0.8308(2)
C1 C 1.0349(2) 0.5157(2) 0.8958(2)
C2 C 0.8494(3) 0.9308(3) 0.9509(3)
C3 C 0.8678(4) 0.9719(3) 0.8913(4)
C4 C 0.7768(3) 0.9162(3) 0.9632(3)
C5 C 0.8135(4) 0.9972(3) 0.8409(4)
C6 C 0.7680(3) 0.8441(3) 0.9913(3)
C7 C 0.7455(5) 0.9824(3) 0.8520(4)
C8 C 0.7237(3) 0.9421(3) 0.9154(3)
C9 C 0.7122(4) 0.8044(3) 0.9702(3)
C10 C 0.6994(3) 0.9602(3) 0.7898(4)
C11 C 0.6672(3) 0.8984(3) 0.8951(3)
C12 C 0.6622(3) 0.8322(4) 0.9222(3)
C13 C 0.7254(3) 0.7281(3) 0.9549(3)
C14 C 0.6515(3) 0.9095(4) 0.8185(3)
C15 C 0.6810(3) 0.7087(3) 0.8981(3)
C16 C 0.6412(4) 0.7710(4) 0.8757(3)
C17 C 0.6324(3) 0.8535(4) 0.7775(4)
C18 C 0.7074(3) 0.6605(3) 0.8484(3)
C19 C 0.6267(3) 0.7815(4) 0.8078(5)
C20 C 0.6533(4) 0.7304(4) 0.7546(3)
C21 C 0.6919(4) 0.6719(4) 0.7733(4)
S2C S 1.08755(6) 0.45675(7) 1.03279(6)
C1C C 1.0349(2) 0.4843(2) 1.1042(2)
N1C N 1.0595(2) 0.4733(2) 1.1692(2)
S1C S 1.00000 0.50000 1.22508(8)
N1B N 0.9405(2) 0.5267(2) 1.1692(2)
C1B C 0.9651(2) 0.5157(2) 1.1042(2)
S2B S 0.91245(6) 0.54325(7) 1.03279(6)
S2A S 0.91245(6) 0.45675(7) 0.96721(6)
C1A C 0.9651(2) 0.4843(2) 0.8958(2)
N1A N 0.9405(2) 0.4733(2) 0.8308(2)
C2H C 0.9308(3) 0.9509(3) 0.8494(3)
C3H C 0.9719(4) 0.8913(3) 0.8678(4)
C2D C 0.9509(3) 0.8494(3) 0.9308(3)
C3D C 0.8913(4) 0.8678(3) 0.9719(4)
C5D C 0.8409(4) 0.8135(3) 0.9972(4)
C7D C 0.8520(5) 0.7455(3) 0.9824(4)
C8D C 0.9154(3) 0.7237(3) 0.9421(3)
C4D C 0.9632(3) 0.7768(3) 0.9162(3)
C6D C 0.9913(3) 0.7680(3) 0.8441(3)
C5H C 0.9972(4) 0.8409(3) 0.8135(4)
C7H C 0.9824(5) 0.8520(3) 0.7455(4)
C8H C 0.9421(3) 0.9154(3) 0.7237(3)
C4H C 0.9162(3) 0.9632(3) 0.7768(3)
C6H C 0.8441(3) 0.9913(3) 0.7680(3)
C10D C 0.7898(3) 0.6994(3) 0.9602(4)
C14D C 0.8185(3) 0.6515(4) 0.9095(3)
C11D C 0.8951(3) 0.6672(3) 0.8984(3)
C12D C 0.9222(3) 0.6622(4) 0.8322(3)
C9D C 0.9702(4) 0.7122(3) 0.8044(3)
C13D C 0.9549(3) 0.7254(3) 0.7281(3)
C10H C 0.9602(3) 0.7898(3) 0.6994(4)
C14H C 0.9095(3) 0.8185(4) 0.6515(3)
C11H C 0.8984(3) 0.8951(3) 0.6672(3)
C12H C 0.8322(3) 0.9222(4) 0.6622(3)
C9H C 0.8044(4) 0.9702(3) 0.7122(3)
C13H C 0.7281(3) 0.9549(3) 0.7254(3)
C18H C 0.6605(3) 0.8484(3) 0.7074(3)
C15H C 0.7087(3) 0.8981(3) 0.6810(3)
C16H C 0.7710(4) 0.8757(4) 0.6412(3)
C19H C 0.7815(3) 0.8078(4) 0.6267(5)
C17H C 0.8535(3) 0.7775(4) 0.6324(4)
C18D C 0.8484(3) 0.7074(3) 0.6605(3)
C15D C 0.8981(3) 0.6810(3) 0.7087(3)
C16D C 0.8757(4) 0.6412(4) 0.7710(3)
C19D C 0.8078(3) 0.6267(4) 0.7815(5)
C17D C 0.7775(3) 0.6324(4) 0.8535(4)
C20D C 0.7546(4) 0.6533(4) 0.7304(3)
C21D C 0.7733(4) 0.6919(4) 0.6719(4)
C20H C 0.7304(4) 0.7546(4) 0.6533(3)
C21H C 0.6719(4) 0.7733(4) 0.6919(4)
#END

data_CSD_CIF_RALVUW
_audit_creation_date 2005-08-18
_audit_creation_method CSD-ConQuest-V1
_database_code_CSD RALVUW
_database_code_depnum_ccdc_archive 'CCDC 259660'
_chemical_formula_sum 'C42 H52 Fe2 N2 O10 Pd3'
_chemical_formula_moiety
;
C42 H52 Fe2 N2 O10 Pd3
;
_journal_coden_Cambridge 179
_journal_volume 44
_journal_year 2005
_journal_page_first 1865
_journal_name_full 'Angew.Chem.,Int.Ed. '
loop_
_publ_author_name
"A.Moyano"
"M.Rosol"
"R.Ma.Moreno"
"C.Lopez"
"M.A.Maestro"
_chemical_name_systematic
;
tetrakis(\m~2~-Acetato-O,O')-bis((R)-2-(t-butyl)-4-ferrocenyl-1,3-oxazoline)-t
ri-palladium(ii)
;
_chemical_melting_point 433.15
_cell_volume  16540.638
_exptl_crystal_colour 'orange'
_exptl_crystal_density_diffrn 1.416
_exptl_special_details
;
Melts with decomposition.

;
_exptl_crystal_description 'block'
_exptl_crystal_preparation 'dichloromethane/hexane'
_diffrn_ambient_temperature 298
#These two values have been output from a single CSD field.
_refine_ls_R_factor_gt 0.0397
_refine_ls_wR_factor_gt 0.0397
_symmetry_cell_setting cubic
_symmetry_space_group_name_H-M 'I 2 3'
_symmetry_Int_Tables_number 197
loop_
_symmetry_equiv_pos_site_id
_symmetry_equiv_pos_as_xyz
1 x,y,z
2 -x,-y,z
3 -x,y,-z
4 x,-y,-z
5 z,x,y
6 z,-x,-y
7 -z,-x,y
8 -z,x,-y
9 y,z,x
10 -y,z,-x
11 y,-z,-x
12 -y,-z,x
13 1/2+x,1/2+y,1/2+z
14 1/2-x,1/2-y,1/2+z
15 1/2-x,1/2+y,1/2-z
16 1/2+x,1/2-y,1/2-z
17 1/2+z,1/2+x,1/2+y
18 1/2+z,1/2-x,1/2-y
19 1/2-z,1/2-x,1/2+y
20 1/2-z,1/2+x,1/2-y
21 1/2+y,1/2+z,1/2+x
22 1/2-y,1/2+z,1/2-x
23 1/2+y,1/2-z,1/2-x
24 1/2-y,1/2-z,1/2+x
_cell_length_a 25.4791(6)
_cell_length_b 25.4791(6)
_cell_length_c 25.4791(6)
_cell_angle_alpha 90
_cell_angle_beta 90
_cell_angle_gamma 90
_cell_formula_units_Z 12
loop_
_atom_type_symbol
_atom_type_radius_bond
C 0.68
H 0.23
Fe 1.34
N 0.68
O 0.68
Pd 1.50
loop_
_atom_site_label
_atom_site_type_symbol
_atom_site_fract_x
_atom_site_fract_y
_atom_site_fract_z
Pd1 Pd 0.16298(2) 0.09695(2) 0.569916(19)
Pd2 Pd 0.16187(3) 0.00000 0.50000
Fe1 Fe 0.11484(5) 0.04157(5) 0.68723(5)
O1 O 0.1036(2) 0.1108(2) 0.5171(2)
O2 O 0.1062(3) 0.0416(2) 0.4635(2)
O3 O 0.2217(2) 0.1098(2) 0.5110(2)
O4 O 0.2178(3) 0.0383(2) 0.4619(3)
O5 O 0.2976(3) 0.0922(4) 0.6640(3)
N1 N 0.2211(2) 0.0870(2) 0.6230(2)
C1 C 0.1911(4) 0.0136(3) 0.6808(3)
C2 C 0.1805(5) 0.0318(4) 0.7325(4)
H1 H 0.19960 0.05950 0.75110
C3 C 0.1375(6) 0.0017(6) 0.7525(5)
H2 H 0.12200 0.00530 0.78760
C4 C 0.1210(6) -0.0333(5) 0.7139(6)
H3 H 0.09210 -0.05840 0.71720
C5 C 0.1530(4) -0.0275(4) 0.6710(5)
H4 H 0.14980 -0.04730 0.63820
C6 C 0.1101(3) 0.0915(3) 0.6256(3)
C7 C 0.1086(4) 0.1195(4) 0.6735(3)
H5 H 0.13330 0.14670 0.68480
C8 C 0.0643(5) 0.1019(5) 0.7012(4)
H6 H 0.05370 0.11420 0.73610
C9 C 0.0387(4) 0.0628(5) 0.6726(5)
H7 H 0.00700 0.04360 0.68290
C10 C 0.0670(3) 0.0569(4) 0.6262(4)
H8 H 0.05830 0.03200 0.59820
C11 C 0.2314(3) 0.0319(4) 0.6437(3)
H9 H 0.23280 0.00760 0.61400
C12 C 0.2839(4) 0.0350(4) 0.6678(4)
H10 H 0.30900 0.01360 0.64870
H11 H 0.28300 0.02350 0.70410
C13 C 0.2588(4) 0.1174(4) 0.6363(4)
C14 C 0.2679(4) 0.1743(4) 0.6293(5)
C15 C 0.2846(7) 0.2001(6) 0.6806(7)
H12 H 0.25760 0.19520 0.70650
H13 H 0.29000 0.23700 0.67500
H14 H 0.31660 0.18440 0.69280
C16 C 0.3121(6) 0.1798(6) 0.585(1)
H15 H 0.34340 0.16200 0.59620
H16 H 0.31970 0.21620 0.57940
H17 H 0.29970 0.16440 0.55290
C17 C 0.2186(4) 0.2040(4) 0.6089(6)
H18 H 0.19140 0.20260 0.63490
H19 H 0.20640 0.18780 0.57710
H20 H 0.22750 0.24000 0.60200
C18 C 0.0899(3) 0.0859(3) 0.4778(3)
C19 C 0.0489(4) 0.1101(5) 0.4424(4)
H21 H 0.03860 0.14360 0.45620
H22 H 0.01880 0.08740 0.44070
H23 H 0.06320 0.11460 0.40780
C20 C 0.2351(3) 0.0825(3) 0.4732(3)
C21 C 0.2787(4) 0.1041(4) 0.4367(4)
H24 H 0.28980 0.13790 0.44900
H25 H 0.26530 0.10720 0.40170
H26 H 0.30810 0.08040 0.43690
Pd1C Pd 0.16298(2) -0.09695(2) 0.430084(19)
Fe1C Fe 0.11484(5) -0.04157(5) 0.31277(5)
O1C O 0.1036(2) -0.1108(2) 0.4829(2)
O2C O 0.1062(3) -0.0416(2) 0.5365(2)
O3C O 0.2217(2) -0.1098(2) 0.4890(2)
O4C O 0.2178(3) -0.0383(2) 0.5381(3)
O5C O 0.2976(3) -0.0922(4) 0.3360(3)
N1C N 0.2211(2) -0.0870(2) 0.3770(2)
C1C C 0.1911(4) -0.0136(3) 0.3192(3)
C2C C 0.1805(5) -0.0318(4) 0.2675(4)
H1C H 0.19960 -0.05950 0.24890
C3C C 0.1375(6) -0.0017(6) 0.2475(5)
H2C H 0.12200 -0.00530 0.21240
C4C C 0.1210(6) 0.0333(5) 0.2861(6)
H3C H 0.09210 0.05840 0.28280
C5C C 0.1530(4) 0.0275(4) 0.3290(5)
H4C H 0.14980 0.04730 0.36180
C6C C 0.1101(3) -0.0915(3) 0.3744(3)
C7C C 0.1086(4) -0.1195(4) 0.3265(3)
H5C H 0.13330 -0.14670 0.31520
C8C C 0.0643(5) -0.1019(5) 0.2988(4)
H6C H 0.05370 -0.11420 0.26390
C9C C 0.0387(4) -0.0628(5) 0.3274(5)
H7C H 0.00700 -0.04360 0.31710
C10C C 0.0670(3) -0.0569(4) 0.3738(4)
H8C H 0.05830 -0.03200 0.40180
C11C C 0.2314(3) -0.0319(4) 0.3563(3)
H9C H 0.23280 -0.00760 0.38600
C12C C 0.2839(4) -0.0350(4) 0.3322(4)
H10C H 0.30900 -0.01360 0.35130
H11C H 0.28300 -0.02350 0.29590
C13C C 0.2588(4) -0.1174(4) 0.3637(4)
C14C C 0.2679(4) -0.1743(4) 0.3707(5)
C15C C 0.2846(7) -0.2001(6) 0.3194(7)
H12C H 0.25760 -0.19520 0.29350
H13C H 0.29000 -0.23700 0.32500
H14C H 0.31660 -0.18440 0.30720
C16C C 0.3121(6) -0.1798(6) 0.415(1)
H15C H 0.34340 -0.16200 0.40380
H16C H 0.31970 -0.21620 0.42060
H17C H 0.29970 -0.16440 0.44710
C17C C 0.2186(4) -0.2040(4) 0.3911(6)
H18C H 0.19140 -0.20260 0.36510
H19C H 0.20640 -0.18780 0.42290
H20C H 0.22750 -0.24000 0.39800
C18C C 0.0899(3) -0.0859(3) 0.5222(3)
C19C C 0.0489(4) -0.1101(5) 0.5576(4)
H21C H 0.03860 -0.14360 0.54380
H22C H 0.01880 -0.08740 0.55930
H23C H 0.06320 -0.11460 0.59220
C20C C 0.2351(3) -0.0825(3) 0.5268(3)
C21C C 0.2787(4) -0.1041(4) 0.5633(4)
H24C H 0.28980 -0.13790 0.55100
H25C H 0.26530 -0.10720 0.59830
H26C H 0.30810 -0.08040 0.56310
#END

data_CSD_CIF_TAVGOM
_audit_creation_date 1997-01-23
_audit_creation_method CSD-ConQuest-V1
_database_code_CSD TAVGOM
_chemical_formula_sum 'C36 H84 Cs4 F4 Ga4'
_chemical_formula_moiety
;
C36 H84 Cs4 F4 Ga4
;
_journal_coden_Cambridge 9
_journal_volume 35
_journal_year 1996
_journal_page_first 2977
_journal_name_full 'Inorg.Chem. '
loop_
_publ_author_name
"B.Werner"
"T.Krauter"
"B.Neumuller"
_chemical_name_systematic
;
tetrakis(\m~3~-Fluoro)-dodecakis(tri-isopropyl)-tetra-cesium-tetra-gallium
;
_chemical_melting_point 401.15
_cell_volume   2722.301
_exptl_crystal_colour 'colorless'
_exptl_crystal_density_diffrn 1.712
_exptl_special_details
;
oxygen- and moisture- sensitive
Isostructural with the indium analogue

;
_diffrn_ambient_temperature 223
#These two values have been output from a single CSD field.
_refine_ls_R_factor_gt 0.0168
_refine_ls_wR_factor_gt 0.0168
_symmetry_cell_setting cubic
_symmetry_space_group_name_H-M 'I 2 3'
_symmetry_Int_Tables_number 197
loop_
_symmetry_equiv_pos_site_id
_symmetry_equiv_pos_as_xyz
1 x,y,z
2 -x,-y,z
3 x,-y,-z
4 z,x,y
5 -x,y,-z
6 -z,-x,y
7 z,-x,-y
8 -z,x,-y
9 y,z,x
10 y,-z,-x
11 -y,z,-x
12 -y,-z,x
13 1/2+x,1/2+y,1/2+z
14 1/2-x,1/2-y,1/2+z
15 1/2+x,1/2-y,1/2-z
16 1/2+z,1/2+x,1/2+y
17 1/2-x,1/2+y,1/2-z
18 1/2-z,1/2-x,1/2+y
19 1/2+z,1/2-x,1/2-y
20 1/2-z,1/2+x,1/2-y
21 1/2+y,1/2+z,1/2+x
22 1/2+y,1/2-z,1/2-x
23 1/2-y,1/2+z,1/2-x
24 1/2-y,1/2-z,1/2+x
_cell_length_a 13.963(1)
_cell_length_b 13.963(1)
_cell_length_c 13.963(1)
_cell_angle_alpha 90
_cell_angle_beta 90
_cell_angle_gamma 90
_cell_formula_units_Z 2
loop_
_atom_type_symbol
_atom_type_radius_bond
C 0.68
H 0.23
Cs 1.97
F 0.64
Ga 1.22
loop_
_atom_site_label
_atom_site_type_symbol
_atom_site_fract_x
_atom_site_fract_y
_atom_site_fract_z
Cs1 Cs -0.11295(2) 0.11295(2) 0.11295(2)
Ga1 Ga 0.17634(3) 0.17634(3) 0.17634(3)
F1 F 0.0949(2) 0.0949(2) 0.0949(2)
C1 C 0.2030(3) 0.0886(3) 0.2862(3)
C2 C 0.2856(4) 0.1213(5) 0.3483(4)
C3 C 0.1147(5) 0.0723(5) 0.3474(5)
H1 H 0.2218(3) 0.0258(3) 0.2589(3)
H2 H 0.3420(4) 0.1313(5) 0.3090(4)
H3 H 0.2994(4) 0.0733(5) 0.3966(4)
H4 H 0.2681(4) 0.1810(5) 0.3792(4)
H5 H 0.0625(5) 0.0507(5) 0.3070(5)
H6 H 0.0968(5) 0.1317(5) 0.3787(5)
H7 H 0.1283(5) 0.0240(5) 0.3956(5)
Cs1A Cs 0.11295(2) -0.11295(2) 0.11295(2)
F1A F -0.0949(2) -0.0949(2) 0.0949(2)
F1D F -0.0949(2) 0.0949(2) -0.0949(2)
Cs1D Cs 0.11295(2) 0.11295(2) -0.11295(2)
F1B F 0.0949(2) -0.0949(2) -0.0949(2)
Cs1B Cs -0.11295(2) -0.11295(2) -0.11295(2)
Ga1D Ga -0.17634(3) 0.17634(3) -0.17634(3)
C1D C -0.2030(3) 0.0886(3) -0.2862(3)
C2D C -0.2856(4) 0.1213(5) -0.3483(4)
H2D H -0.3420(4) 0.1313(5) -0.3090(4)
H3D H -0.2994(4) 0.0733(5) -0.3966(4)
H4D H -0.2681(4) 0.1810(5) -0.3792(4)
C3D C -0.1147(5) 0.0723(5) -0.3474(5)
H5D H -0.0625(5) 0.0507(5) -0.3070(5)
H6D H -0.0968(5) 0.1317(5) -0.3787(5)
H7D H -0.1283(5) 0.0240(5) -0.3956(5)
H1D H -0.2218(3) 0.0258(3) -0.2589(3)
C1G C -0.2862(3) 0.2030(3) -0.0886(3)
C2G C -0.3483(4) 0.2856(5) -0.1213(4)
H2G H -0.3090(4) 0.3420(5) -0.1313(4)
H3G H -0.3966(4) 0.2994(5) -0.0733(4)
H4G H -0.3792(4) 0.2681(5) -0.1810(4)
C3G C -0.3474(5) 0.1147(5) -0.0723(5)
H5G H -0.3070(5) 0.0625(5) -0.0507(5)
H6G H -0.3787(5) 0.0968(5) -0.1317(5)
H7G H -0.3956(5) 0.1283(5) -0.0240(5)
H1G H -0.2589(3) 0.2218(3) -0.0258(3)
C1J C -0.0886(3) 0.2862(3) -0.2030(3)
C2J C -0.1213(4) 0.3483(5) -0.2856(4)
H2J H -0.1313(4) 0.3090(5) -0.3420(4)
H3J H -0.0733(4) 0.3966(5) -0.2994(4)
H4J H -0.1810(4) 0.3792(5) -0.2681(4)
C3J C -0.0723(5) 0.3474(5) -0.1147(5)
H5J H -0.0507(5) 0.3070(5) -0.0625(5)
H6J H -0.1317(5) 0.3787(5) -0.0968(5)
H7J H -0.0240(5) 0.3956(5) -0.1283(5)
H1J H -0.0258(3) 0.2589(3) -0.2218(3)
Ga1A Ga -0.17634(3) -0.17634(3) 0.17634(3)
C1A C -0.2030(3) -0.0886(3) 0.2862(3)
C2A C -0.2856(4) -0.1213(5) 0.3483(4)
H2A H -0.3420(4) -0.1313(5) 0.3090(4)
H3A H -0.2994(4) -0.0733(5) 0.3966(4)
H4A H -0.2681(4) -0.1810(5) 0.3792(4)
C3A C -0.1147(5) -0.0723(5) 0.3474(5)
H5A H -0.0625(5) -0.0507(5) 0.3070(5)
H6A H -0.0968(5) -0.1317(5) 0.3787(5)
H7A H -0.1283(5) -0.0240(5) 0.3956(5)
H1A H -0.2218(3) -0.0258(3) 0.2589(3)
C1E C -0.2862(3) -0.2030(3) 0.0886(3)
C2E C -0.3483(4) -0.2856(5) 0.1213(4)
H2E H -0.3090(4) -0.3420(5) 0.1313(4)
H3E H -0.3966(4) -0.2994(5) 0.0733(4)
H4E H -0.3792(4) -0.2681(5) 0.1810(4)
C3E C -0.3474(5) -0.1147(5) 0.0723(5)
H5E H -0.3070(5) -0.0625(5) 0.0507(5)
H6E H -0.3787(5) -0.0968(5) 0.1317(5)
H7E H -0.3956(5) -0.1283(5) 0.0240(5)
H1E H -0.2589(3) -0.2218(3) 0.0258(3)
C1K C -0.0886(3) -0.2862(3) 0.2030(3)
C2K C -0.1213(4) -0.3483(5) 0.2856(4)
H2K H -0.1313(4) -0.3090(5) 0.3420(4)
H3K H -0.0733(4) -0.3966(5) 0.2994(4)
H4K H -0.1810(4) -0.3792(5) 0.2681(4)
C3K C -0.0723(5) -0.3474(5) 0.1147(5)
H5K H -0.0507(5) -0.3070(5) 0.0625(5)
H6K H -0.1317(5) -0.3787(5) 0.0968(5)
H7K H -0.0240(5) -0.3956(5) 0.1283(5)
H1K H -0.0258(3) -0.2589(3) 0.2218(3)
Ga1B Ga 0.17634(3) -0.17634(3) -0.17634(3)
C1B C 0.2030(3) -0.0886(3) -0.2862(3)
C2B C 0.2856(4) -0.1213(5) -0.3483(4)
H2B H 0.3420(4) -0.1313(5) -0.3090(4)
H3B H 0.2994(4) -0.0733(5) -0.3966(4)
H4B H 0.2681(4) -0.1810(5) -0.3792(4)
C3B C 0.1147(5) -0.0723(5) -0.3474(5)
H5B H 0.0625(5) -0.0507(5) -0.3070(5)
H6B H 0.0968(5) -0.1317(5) -0.3787(5)
H7B H 0.1283(5) -0.0240(5) -0.3956(5)
H1B H 0.2218(3) -0.0258(3) -0.2589(3)
C1F C 0.2862(3) -0.2030(3) -0.0886(3)
C2F C 0.3483(4) -0.2856(5) -0.1213(4)
H2F H 0.3090(4) -0.3420(5) -0.1313(4)
H3F H 0.3966(4) -0.2994(5) -0.0733(4)
H4F H 0.3792(4) -0.2681(5) -0.1810(4)
C3F C 0.3474(5) -0.1147(5) -0.0723(5)
H5F H 0.3070(5) -0.0625(5) -0.0507(5)
H6F H 0.3787(5) -0.0968(5) -0.1317(5)
H7F H 0.3956(5) -0.1283(5) -0.0240(5)
H1F H 0.2589(3) -0.2218(3) -0.0258(3)
C1I C 0.0886(3) -0.2862(3) -0.2030(3)
C2I C 0.1213(4) -0.3483(5) -0.2856(4)
H2I H 0.1313(4) -0.3090(5) -0.3420(4)
H3I H 0.0733(4) -0.3966(5) -0.2994(4)
H4I H 0.1810(4) -0.3792(5) -0.2681(4)
C3I C 0.0723(5) -0.3474(5) -0.1147(5)
H5I H 0.0507(5) -0.3070(5) -0.0625(5)
H6I H 0.1317(5) -0.3787(5) -0.0968(5)
H7I H 0.0240(5) -0.3956(5) -0.1283(5)
H1I H 0.0258(3) -0.2589(3) -0.2218(3)
C1C C 0.2862(3) 0.2030(3) 0.0886(3)
C2C C 0.3483(4) 0.2856(5) 0.1213(4)
H2C H 0.3090(4) 0.3420(5) 0.1313(4)
H3C H 0.3966(4) 0.2994(5) 0.0733(4)
H4C H 0.3792(4) 0.2681(5) 0.1810(4)
C3C C 0.3474(5) 0.1147(5) 0.0723(5)
H5C H 0.3070(5) 0.0625(5) 0.0507(5)
H6C H 0.3787(5) 0.0968(5) 0.1317(5)
H7C H 0.3956(5) 0.1283(5) 0.0240(5)
H1C H 0.2589(3) 0.2218(3) 0.0258(3)
C1H C 0.0886(3) 0.2862(3) 0.2030(3)
C2H C 0.1213(4) 0.3483(5) 0.2856(4)
H2H H 0.1313(4) 0.3090(5) 0.3420(4)
H3H H 0.0733(4) 0.3966(5) 0.2994(4)
H4H H 0.1810(4) 0.3792(5) 0.2681(4)
C3H C 0.0723(5) 0.3474(5) 0.1147(5)
H5H H 0.0507(5) 0.3070(5) 0.0625(5)
H6H H 0.1317(5) 0.3787(5) 0.0968(5)
H7H H 0.0240(5) 0.3956(5) 0.1283(5)
H1H H 0.0258(3) 0.2589(3) 0.2218(3)
#END

data_CSD_CIF_TAVGUS
_audit_creation_date 1997-01-23
_audit_creation_method CSD-ConQuest-V1
_database_code_CSD TAVGUS
_chemical_formula_sum 'C36 H84 Cs4 F4 In4'
_chemical_formula_moiety
;
C36 H84 Cs4 F4 In4
;
_journal_coden_Cambridge 9
_journal_volume 35
_journal_year 1996
_journal_page_first 2977
_journal_name_full 'Inorg.Chem. '
loop_
_publ_author_name
"B.Werner"
"T.Krauter"
"B.Neumuller"
_chemical_name_systematic
;
tetrakis(\m~3~-Fluoro)-dodecakis(tri-isopropyl)-tetra-cesium-tetra-indium
;
_chemical_melting_point 416.15
_cell_volume   2845.781
_exptl_crystal_colour 'colorless'
_exptl_crystal_density_diffrn 1.849
_exptl_special_details
;
oxygen- and moisture- sensitive
Isostructural with the gallium analogue

;
_diffrn_ambient_temperature 223
#These two values have been output from a single CSD field.
_refine_ls_R_factor_gt 0.0166
_refine_ls_wR_factor_gt 0.0166
_symmetry_cell_setting cubic
_symmetry_space_group_name_H-M 'I 2 3'
_symmetry_Int_Tables_number 197
loop_
_symmetry_equiv_pos_site_id
_symmetry_equiv_pos_as_xyz
1 x,y,z
2 -x,-y,z
3 x,-y,-z
4 z,x,y
5 -x,y,-z
6 -z,-x,y
7 z,-x,-y
8 -z,x,-y
9 y,z,x
10 y,-z,-x
11 -y,z,-x
12 -y,-z,x
13 1/2+x,1/2+y,1/2+z
14 1/2-x,1/2-y,1/2+z
15 1/2+x,1/2-y,1/2-z
16 1/2+z,1/2+x,1/2+y
17 1/2-x,1/2+y,1/2-z
18 1/2-z,1/2-x,1/2+y
19 1/2+z,1/2-x,1/2-y
20 1/2-z,1/2+x,1/2-y
21 1/2+y,1/2+z,1/2+x
22 1/2+y,1/2-z,1/2-x
23 1/2-y,1/2+z,1/2-x
24 1/2-y,1/2-z,1/2+x
_cell_length_a 14.171(2)
_cell_length_b 14.171(2)
_cell_length_c 14.171(2)
_cell_angle_alpha 90
_cell_angle_beta 90
_cell_angle_gamma 90
_cell_formula_units_Z 2
loop_
_atom_type_symbol
_atom_type_radius_bond
C 0.68
H 0.23
Cs 1.89
F 0.64
In 1.63
loop_
_atom_site_label
_atom_site_type_symbol
_atom_site_fract_x
_atom_site_fract_y
_atom_site_fract_z
Cs1 Cs -0.11126(1) 0.11126(1) 0.11126(1)
In1 In 0.17884(2) 0.17884(2) 0.17884(2)
F1 F 0.0905(1) 0.0905(1) 0.0905(1)
C1 C 0.2025(3) 0.0825(3) 0.2982(3)
C2 C 0.2846(4) 0.1132(5) 0.3581(3)
C3 C 0.1146(6) 0.0707(5) 0.3561(5)
H1 H 0.2184(3) 0.0200(3) 0.2714(3)
H2 H 0.3399(4) 0.1201(5) 0.3184(3)
H3 H 0.2970(4) 0.0664(5) 0.4065(3)
H4 H 0.2701(4) 0.1732(5) 0.3877(3)
H5 H 0.0630(6) 0.0509(5) 0.3158(5)
H6 H 0.0988(6) 0.1303(5) 0.3858(5)
H7 H 0.1255(6) 0.0234(5) 0.4043(5)
Cs1A Cs 0.11126(1) -0.11126(1) 0.11126(1)
F1A F -0.0905(1) -0.0905(1) 0.0905(1)
F1D F -0.0905(1) 0.0905(1) -0.0905(1)
Cs1D Cs 0.11126(1) 0.11126(1) -0.11126(1)
F1B F 0.0905(1) -0.0905(1) -0.0905(1)
Cs1B Cs -0.11126(1) -0.11126(1) -0.11126(1)
In1D In -0.17884(2) 0.17884(2) -0.17884(2)
C1D C -0.2025(3) 0.0825(3) -0.2982(3)
C2D C -0.2846(4) 0.1132(5) -0.3581(3)
H2D H -0.3399(4) 0.1201(5) -0.3184(3)
H3D H -0.2970(4) 0.0664(5) -0.4065(3)
H4D H -0.2701(4) 0.1732(5) -0.3877(3)
C3D C -0.1146(6) 0.0707(5) -0.3561(5)
H5D H -0.0630(6) 0.0509(5) -0.3158(5)
H6D H -0.0988(6) 0.1303(5) -0.3858(5)
H7D H -0.1255(6) 0.0234(5) -0.4043(5)
H1D H -0.2184(3) 0.0200(3) -0.2714(3)
C1G C -0.2982(3) 0.2025(3) -0.0825(3)
C2G C -0.3581(4) 0.2846(5) -0.1132(3)
H2G H -0.3184(4) 0.3399(5) -0.1201(3)
H3G H -0.4065(4) 0.2970(5) -0.0664(3)
H4G H -0.3877(4) 0.2701(5) -0.1732(3)
C3G C -0.3561(6) 0.1146(5) -0.0707(5)
H5G H -0.3158(6) 0.0630(5) -0.0509(5)
H6G H -0.3858(6) 0.0988(5) -0.1303(5)
H7G H -0.4043(6) 0.1255(5) -0.0234(5)
H1G H -0.2714(3) 0.2184(3) -0.0200(3)
C1J C -0.0825(3) 0.2982(3) -0.2025(3)
C2J C -0.1132(4) 0.3581(5) -0.2846(3)
H2J H -0.1201(4) 0.3184(5) -0.3399(3)
H3J H -0.0664(4) 0.4065(5) -0.2970(3)
H4J H -0.1732(4) 0.3877(5) -0.2701(3)
C3J C -0.0707(6) 0.3561(5) -0.1146(5)
H5J H -0.0509(6) 0.3158(5) -0.0630(5)
H6J H -0.1303(6) 0.3858(5) -0.0988(5)
H7J H -0.0234(6) 0.4043(5) -0.1255(5)
H1J H -0.0200(3) 0.2714(3) -0.2184(3)
In1A In -0.17884(2) -0.17884(2) 0.17884(2)
C1A C -0.2025(3) -0.0825(3) 0.2982(3)
C2A C -0.2846(4) -0.1132(5) 0.3581(3)
H2A H -0.3399(4) -0.1201(5) 0.3184(3)
H3A H -0.2970(4) -0.0664(5) 0.4065(3)
H4A H -0.2701(4) -0.1732(5) 0.3877(3)
C3A C -0.1146(6) -0.0707(5) 0.3561(5)
H5A H -0.0630(6) -0.0509(5) 0.3158(5)
H6A H -0.0988(6) -0.1303(5) 0.3858(5)
H7A H -0.1255(6) -0.0234(5) 0.4043(5)
H1A H -0.2184(3) -0.0200(3) 0.2714(3)
C1E C -0.2982(3) -0.2025(3) 0.0825(3)
C2E C -0.3581(4) -0.2846(5) 0.1132(3)
H2E H -0.3184(4) -0.3399(5) 0.1201(3)
H3E H -0.4065(4) -0.2970(5) 0.0664(3)
H4E H -0.3877(4) -0.2701(5) 0.1732(3)
C3E C -0.3561(6) -0.1146(5) 0.0707(5)
H5E H -0.3158(6) -0.0630(5) 0.0509(5)
H6E H -0.3858(6) -0.0988(5) 0.1303(5)
H7E H -0.4043(6) -0.1255(5) 0.0234(5)
H1E H -0.2714(3) -0.2184(3) 0.0200(3)
C1K C -0.0825(3) -0.2982(3) 0.2025(3)
C2K C -0.1132(4) -0.3581(5) 0.2846(3)
H2K H -0.1201(4) -0.3184(5) 0.3399(3)
H3K H -0.0664(4) -0.4065(5) 0.2970(3)
H4K H -0.1732(4) -0.3877(5) 0.2701(3)
C3K C -0.0707(6) -0.3561(5) 0.1146(5)
H5K H -0.0509(6) -0.3158(5) 0.0630(5)
H6K H -0.1303(6) -0.3858(5) 0.0988(5)
H7K H -0.0234(6) -0.4043(5) 0.1255(5)
H1K H -0.0200(3) -0.2714(3) 0.2184(3)
In1B In 0.17884(2) -0.17884(2) -0.17884(2)
C1B C 0.2025(3) -0.0825(3) -0.2982(3)
C2B C 0.2846(4) -0.1132(5) -0.3581(3)
H2B H 0.3399(4) -0.1201(5) -0.3184(3)
H3B H 0.2970(4) -0.0664(5) -0.4065(3)
H4B H 0.2701(4) -0.1732(5) -0.3877(3)
C3B C 0.1146(6) -0.0707(5) -0.3561(5)
H5B H 0.0630(6) -0.0509(5) -0.3158(5)
H6B H 0.0988(6) -0.1303(5) -0.3858(5)
H7B H 0.1255(6) -0.0234(5) -0.4043(5)
H1B H 0.2184(3) -0.0200(3) -0.2714(3)
C1F C 0.2982(3) -0.2025(3) -0.0825(3)
C2F C 0.3581(4) -0.2846(5) -0.1132(3)
H2F H 0.3184(4) -0.3399(5) -0.1201(3)
H3F H 0.4065(4) -0.2970(5) -0.0664(3)
H4F H 0.3877(4) -0.2701(5) -0.1732(3)
C3F C 0.3561(6) -0.1146(5) -0.0707(5)
H5F H 0.3158(6) -0.0630(5) -0.0509(5)
H6F H 0.3858(6) -0.0988(5) -0.1303(5)
H7F H 0.4043(6) -0.1255(5) -0.0234(5)
H1F H 0.2714(3) -0.2184(3) -0.0200(3)
C1I C 0.0825(3) -0.2982(3) -0.2025(3)
C2I C 0.1132(4) -0.3581(5) -0.2846(3)
H2I H 0.1201(4) -0.3184(5) -0.3399(3)
H3I H 0.0664(4) -0.4065(5) -0.2970(3)
H4I H 0.1732(4) -0.3877(5) -0.2701(3)
C3I C 0.0707(6) -0.3561(5) -0.1146(5)
H5I H 0.0509(6) -0.3158(5) -0.0630(5)
H6I H 0.1303(6) -0.3858(5) -0.0988(5)
H7I H 0.0234(6) -0.4043(5) -0.1255(5)
H1I H 0.0200(3) -0.2714(3) -0.2184(3)
C1C C 0.2982(3) 0.2025(3) 0.0825(3)
C2C C 0.3581(4) 0.2846(5) 0.1132(3)
H2C H 0.3184(4) 0.3399(5) 0.1201(3)
H3C H 0.4065(4) 0.2970(5) 0.0664(3)
H4C H 0.3877(4) 0.2701(5) 0.1732(3)
C3C C 0.3561(6) 0.1146(5) 0.0707(5)
H5C H 0.3158(6) 0.0630(5) 0.0509(5)
H6C H 0.3858(6) 0.0988(5) 0.1303(5)
H7C H 0.4043(6) 0.1255(5) 0.0234(5)
H1C H 0.2714(3) 0.2184(3) 0.0200(3)
C1H C 0.0825(3) 0.2982(3) 0.2025(3)
C2H C 0.1132(4) 0.3581(5) 0.2846(3)
H2H H 0.1201(4) 0.3184(5) 0.3399(3)
H3H H 0.0664(4) 0.4065(5) 0.2970(3)
H4H H 0.1732(4) 0.3877(5) 0.2701(3)
C3H C 0.0707(6) 0.3561(5) 0.1146(5)
H5H H 0.0509(6) 0.3158(5) 0.0630(5)
H6H H 0.1303(6) 0.3858(5) 0.0988(5)
H7H H 0.0234(6) 0.4043(5) 0.1255(5)
H1H H 0.0200(3) 0.2714(3) 0.2184(3)
#END

data_CSD_CIF_TIJROV
_audit_creation_date 2013-10-09
_audit_creation_method CSD-ConQuest-V1
_database_code_CSD TIJROV
_database_code_depnum_ccdc_archive 'CCDC 949211'
_chemical_formula_sum 'C18 H50 F6 Mo3 O1 P7 S7'
_chemical_formula_moiety
;
C18 H48 Mo3 P6 S7 1+,F6 P1 1-,H2 O1
;
_journal_coden_Cambridge 1290
_journal_year 2013
_journal_page_first 5797
_journal_name_full 'Eur.J.Inorg.Chem. '
loop_
_publ_author_name
"T.F.Beltran"
"M.Feliz"
"R.Llusar"
"V.S.Safont"
"C.Vicent"
_chemical_name_systematic
;
(\m~3~-sulfido)-tris(\m~2~-sulfido)-tris(ethane-1,2-diylbis(dimethylphosphine)
)-trisulfido-tri-molybdenum hexafluorophosphate monohydrate
;
_cell_volume   8901.532
_exptl_crystal_colour 'brown'
_diffrn_ambient_temperature 150.1
#These two values have been output from a single CSD field.
_refine_ls_R_factor_gt 0.0443
_refine_ls_wR_factor_gt 0.0443
_symmetry_cell_setting cubic
_symmetry_space_group_name_H-M 'I 2 3'
_symmetry_Int_Tables_number 197
loop_
_symmetry_equiv_pos_site_id
_symmetry_equiv_pos_as_xyz
1 x,y,z
2 z,x,y
3 y,z,x
4 -y,-z,x
5 z,-x,-y
6 -y,z,-x
7 -z,-x,y
8 -z,x,-y
9 y,-z,-x
10 -x,-y,z
11 x,-y,-z
12 -x,y,-z
13 1/2+x,1/2+y,1/2+z
14 1/2+z,1/2+x,1/2+y
15 1/2+y,1/2+z,1/2+x
16 1/2-y,1/2-z,1/2+x
17 1/2+z,1/2-x,1/2-y
18 1/2-y,1/2+z,1/2-x
19 1/2-z,1/2-x,1/2+y
20 1/2-z,1/2+x,1/2-y
21 1/2+y,1/2-z,1/2-x
22 1/2-x,1/2-y,1/2+z
23 1/2+x,1/2-y,1/2-z
24 1/2-x,1/2+y,1/2-z
_cell_length_a 20.7247(2)
_cell_length_b 20.7247(2)
_cell_length_c 20.7247(2)
_cell_angle_alpha 90
_cell_angle_beta 90
_cell_angle_gamma 90
_cell_formula_units_Z 8
loop_
_atom_type_symbol
_atom_type_radius_bond
C 0.68
H 0.23
F 0.64
Mo 1.54
O 0.68
P 1.05
S 1.02
loop_
_atom_site_label
_atom_site_type_symbol
_atom_site_fract_x
_atom_site_fract_y
_atom_site_fract_z
Mo1 Mo 0.23672(5) 0.79299(4) 0.68687(5)
P1 P 0.32129(14) 0.85288(14) 0.61569(14)
S1 S 0.30092(12) 0.69908(12) 0.69908(12)
S2 S 0.26886(13) 0.86296(12) 0.76680(13)
P2 P 0.17156(14) 0.88508(13) 0.64342(15)
C1 C 0.2207(6) 0.9400(6) 0.5932(6)
H1 H 0.19340 0.96050 0.56110
H2 H 0.23910 0.97360 0.62010
C2 C 0.3734(6) 0.9129(6) 0.6526(6)
H3 H 0.39550 0.89410 0.68870
H4 H 0.34780 0.94870 0.66710
H5 H 0.40440 0.92770 0.62150
C3 C 0.2759(6) 0.9027(6) 0.5588(6)
H6 H 0.30490 0.93320 0.53840
H7 H 0.25770 0.87550 0.52540
C4 C 0.3757(6) 0.8065(7) 0.5661(6)
H8 H 0.35190 0.77390 0.54330
H9 H 0.40770 0.78640 0.59290
H10 H 0.39650 0.83450 0.53560
S3 S 0.21748(15) 0.75063(14) 0.57598(13)
C5 C 0.1069(7) 0.8597(6) 0.5930(7)
H11 H 0.08450 0.82450 0.61320
H12 H 0.12360 0.84590 0.55210
H13 H 0.07750 0.89490 0.58660
C6 C 0.1333(6) 0.9360(6) 0.7011(7)
H14 H 0.14740 0.97970 0.69480
H15 H 0.14470 0.92210 0.74380
H16 H 0.08740 0.93360 0.69580
P3 P 0.00000 1.00000 0.50000
F1 F 0.0780(5) 1.00000 0.50000
F2 F 0.00000 1.00000 0.5768(5)
F3 F 0.00000 1.0779(4) 0.50000
O1 O 0.1253(7) 0.8747(7) 0.8747(7)
Mo1E Mo 0.20701(5) 0.68687(4) 0.76328(5)
P1E P 0.14712(14) 0.61569(14) 0.67871(14)
S2E S 0.13704(13) 0.76680(12) 0.73114(13)
P2E P 0.11492(14) 0.64342(13) 0.82844(15)
C1E C 0.0600(6) 0.5932(6) 0.7793(6)
H1E H 0.03950 0.56110 0.80660
H2E H 0.02640 0.62010 0.76090
C2E C 0.0871(6) 0.6526(6) 0.6266(6)
H3E H 0.10590 0.68870 0.60450
H4E H 0.05130 0.66710 0.65220
H5E H 0.07230 0.62150 0.59560
C3E C 0.0973(6) 0.5588(6) 0.7241(6)
H6E H 0.06680 0.53840 0.69510
H7E H 0.12450 0.52540 0.74230
C4E C 0.1935(6) 0.5661(7) 0.6243(6)
H8E H 0.22610 0.54330 0.64810
H9E H 0.21360 0.59290 0.59230
H10E H 0.16550 0.53560 0.60350
S3E S 0.24937(15) 0.57598(14) 0.78252(13)
C5E C 0.1403(7) 0.5930(6) 0.8931(7)
H11E H 0.17550 0.61320 0.91550
H12E H 0.15410 0.55210 0.87640
H13E H 0.10510 0.58660 0.92250
C6E C 0.0640(6) 0.7011(6) 0.8667(7)
H14E H 0.02030 0.69480 0.85260
H15E H 0.07790 0.74380 0.85530
H16E H 0.06640 0.69580 0.91260
Mo1F Mo 0.31313(5) 0.76328(4) 0.79299(5)
P1F P 0.38431(14) 0.67871(14) 0.85288(14)
S2F S 0.23320(13) 0.73114(12) 0.86296(13)
P2F P 0.35658(14) 0.82844(13) 0.88508(15)
C1F C 0.4068(6) 0.7793(6) 0.9400(6)
H1F H 0.43890 0.80660 0.96050
H2F H 0.37990 0.76090 0.97360
C2F C 0.3474(6) 0.6266(6) 0.9129(6)
H3F H 0.31130 0.60450 0.89410
H4F H 0.33290 0.65220 0.94870
H5F H 0.37850 0.59560 0.92770
C3F C 0.4412(6) 0.7241(6) 0.9027(6)
H6F H 0.46160 0.69510 0.93320
H7F H 0.47460 0.74230 0.87550
C4F C 0.4339(6) 0.6243(7) 0.8065(6)
H8F H 0.45670 0.64810 0.77390
H9F H 0.40710 0.59230 0.78640
H10F H 0.46440 0.60350 0.83450
S3F S 0.42402(15) 0.78252(14) 0.75063(13)
C5F C 0.4070(7) 0.8931(6) 0.8597(7)
H11F H 0.38680 0.91550 0.82450
H12F H 0.44790 0.87640 0.84590
H13F H 0.41340 0.92250 0.89490
C6F C 0.2989(6) 0.8667(6) 0.9360(7)
H14F H 0.30520 0.85260 0.97970
H15F H 0.25620 0.85530 0.92210
H16F H 0.30420 0.91260 0.93360
F1I F -0.0780(5) 1.00000 0.50000
F3I F 0.00000 0.9221(4) 0.50000
F2J F 0.00000 1.00000 0.4232(5)
#END

data_CSD_CIF_TUCFOO
_audit_creation_date 2015-05-08
_audit_creation_method CSD-ConQuest-V1
_database_code_CSD TUCFOO
_database_code_depnum_ccdc_archive 'CCDC 1046726; CCDC 429134'
_chemical_formula_sum 'C36 H72 Cl1 F18 N4 Sb3 Sn4'
_chemical_formula_moiety
;
4(C9 H18 N1 Sn1 1+),3(F6 Sb1 1-),Cl1 1-
;
_journal_coden_Cambridge 179
_journal_volume 54
_journal_year 2015
_journal_page_first 5488
_journal_name_full 'Angew.Chem.,Int.Ed. '
loop_
_publ_author_name
"A.Kavoosi"
"E.Fillion"
_chemical_name_systematic
;
tetrakis((tris(propane-1,3-diyl)amine)-tin) tris(hexafluoro-antimony) chloride
;
_cell_volume   2619.854
_exptl_crystal_colour 'colorless'
_exptl_crystal_density_diffrn 2.254
_exptl_crystal_description 'block'
_exptl_crystal_preparation '1,2-dichloroethane/pentane'
_diffrn_ambient_temperature 200
#These two values have been output from a single CSD field.
_refine_ls_R_factor_gt 0.008
_refine_ls_wR_factor_gt 0.008
_symmetry_cell_setting cubic
_symmetry_space_group_name_H-M 'I 2 3'
_symmetry_Int_Tables_number 197
loop_
_symmetry_equiv_pos_site_id
_symmetry_equiv_pos_as_xyz
1 x,y,z
2 -x,-y,z
3 -x,y,-z
4 x,-y,-z
5 z,x,y
6 z,-x,-y
7 -z,-x,y
8 -z,x,-y
9 y,z,x
10 -y,z,-x
11 y,-z,-x
12 -y,-z,x
13 1/2+x,1/2+y,1/2+z
14 1/2-x,1/2-y,1/2+z
15 1/2-x,1/2+y,1/2-z
16 1/2+x,1/2-y,1/2-z
17 1/2+z,1/2+x,1/2+y
18 1/2+z,1/2-x,1/2-y
19 1/2-z,1/2-x,1/2+y
20 1/2-z,1/2+x,1/2-y
21 1/2+y,1/2+z,1/2+x
22 1/2-y,1/2+z,1/2-x
23 1/2+y,1/2-z,1/2-x
24 1/2-y,1/2-z,1/2+x
_cell_length_a 13.7856(1)
_cell_length_b 13.7856(1)
_cell_length_c 13.7856(1)
_cell_angle_alpha 90
_cell_angle_beta 90
_cell_angle_gamma 90
_cell_formula_units_Z 2
loop_
_atom_type_symbol
_atom_type_radius_bond
C 0.68
H 0.23
Cl 0.99
F 0.64
N 0.68
Sb 1.39
Sn 1.39
loop_
_atom_site_label
_atom_site_type_symbol
_atom_site_fract_x
_atom_site_fract_y
_atom_site_fract_z
Sn1 Sn 0.87766(2) 0.12234(2) 0.87766(2)
N1 N 0.78457(13) 0.21543(13) 0.78457(13)
C1 C 0.84043(15) 0.00976(15) 0.77759(14)
H1 H 0.89530 -0.00410 0.73330
H2 H 0.82300 -0.05050 0.81250
C2 C 0.75300(18) 0.04912(15) 0.72089(15)
H3 H 0.74540 0.01150 0.66020
H4 H 0.69350 0.04010 0.76010
C3 C 0.76410(16) 0.15676(14) 0.69585(14)
H5 H 0.81780 0.16490 0.64890
H6 H 0.70370 0.18040 0.66500
Sb1 Sb 0.50000 0.00000 1.00000
F1 F 0.50000 -0.13456(18) 1.00000
F2 F 0.59629(10) -0.00016(19) 0.90472(10)
Cl1 Cl 1.00000 0.00000 1.00000
C1E C 0.77759(15) 0.15957(15) 0.99024(14)
H1E H 0.73330 0.10470 1.00410
H2E H 0.81250 0.17700 1.05050
C2E C 0.72089(18) 0.24700(15) 0.95088(15)
H3E H 0.66020 0.25460 0.98850
H4E H 0.76010 0.30650 0.95990
C3E C 0.69585(16) 0.23590(14) 0.84324(14)
H5E H 0.64890 0.18220 0.83510
H6E H 0.66500 0.29630 0.81960
C1K C 0.99024(15) 0.22241(15) 0.84043(14)
H1K H 1.00410 0.26670 0.89530
H2K H 1.05050 0.18750 0.82300
C2K C 0.95088(18) 0.27911(15) 0.75300(15)
H3K H 0.98850 0.33980 0.74540
H4K H 0.95990 0.23990 0.69350
C3K C 0.84324(16) 0.30415(14) 0.76410(14)
H5K H 0.83510 0.35110 0.81780
H6K H 0.81960 0.33500 0.70370
F1A F 0.50000 0.13456(18) 1.00000
F2A F 0.40371(10) 0.00016(19) 0.90472(10)
F2B F 0.40371(10) -0.00016(19) 1.09528(10)
F2C F 0.59629(10) 0.00016(19) 1.09528(10)
#END

data_CSD_CIF_VUHYON
_audit_creation_date 2010-05-26
_audit_creation_method CSD-ConQuest-V1
_database_code_CSD VUHYON
_database_code_depnum_ccdc_archive 'CCDC 745511'
_chemical_formula_sum 'C45 H48 F6 Ir1 N9 P1'
_chemical_formula_moiety
;
C45 H48 Ir1 N9 1+,F6 P1 1-
;
_journal_coden_Cambridge 4
_journal_volume 131
_journal_year 2009
_journal_page_first 9162
_journal_name_full 'J.Am.Chem.Soc. '
loop_
_publ_author_name
"J.-U.Rohde"
"Wei-Tsung Lee"
_chemical_name_systematic
;
tris(N,N-Dimethyl-N',N''-diphenylguanidinato)-iridium(iv) hexafluorophosphate
;
_cell_volume   8927.715
_exptl_crystal_colour 'black'
_exptl_crystal_density_diffrn 1.566
_exptl_special_details
;
Absolute configuration

;
_exptl_crystal_description 'prism'
_diffrn_ambient_temperature 190
#These two values have been output from a single CSD field.
_refine_ls_R_factor_gt 0.0312
_refine_ls_wR_factor_gt 0.0312
_symmetry_cell_setting cubic
_symmetry_space_group_name_H-M 'I 2 3'
_symmetry_Int_Tables_number 197
loop_
_symmetry_equiv_pos_site_id
_symmetry_equiv_pos_as_xyz
1 x,y,z
2 -x,-y,z
3 -x,y,-z
4 x,-y,-z
5 z,x,y
6 z,-x,-y
7 -z,-x,y
8 -z,x,-y
9 y,z,x
10 -y,z,-x
11 y,-z,-x
12 -y,-z,x
13 1/2+x,1/2+y,1/2+z
14 1/2-x,1/2-y,1/2+z
15 1/2-x,1/2+y,1/2-z
16 1/2+x,1/2-y,1/2-z
17 1/2+z,1/2+x,1/2+y
18 1/2+z,1/2-x,1/2-y
19 1/2-z,1/2-x,1/2+y
20 1/2-z,1/2+x,1/2-y
21 1/2+y,1/2+z,1/2+x
22 1/2-y,1/2+z,1/2-x
23 1/2+y,1/2-z,1/2-x
24 1/2-y,1/2-z,1/2+x
_cell_length_a 20.745(3)
_cell_length_b 20.745(3)
_cell_length_c 20.745(3)
_cell_angle_alpha 90
_cell_angle_beta 90
_cell_angle_gamma 90
_cell_formula_units_Z 8
loop_
_atom_type_symbol
_atom_type_radius_bond
C 0.68
H 0.23
F 0.64
Ir 1.41
N 0.68
P 1.05
loop_
_atom_site_label
_atom_site_type_symbol
_atom_site_fract_x
_atom_site_fract_y
_atom_site_fract_z
Ir1 Ir 0.817978(7) 0.817978(7) 0.817978(7)
N1 N 0.78329(16) 0.83275(16) 0.90878(16)
N2 N 0.72130(15) 0.84050(15) 0.82474(17)
N3 N 0.6726(2) 0.85932(19) 0.92896(17)
C1 C 0.72289(19) 0.8453(2) 0.8902(2)
C2 C 0.80519(19) 0.8109(2) 0.96924(18)
C3 C 0.7675(2) 0.7713(2) 1.0092(2)
H1 H 0.72550 0.75860 0.99600
C4 C 0.7918(3) 0.7508(2) 1.0675(2)
H2 H 0.76620 0.72450 1.09490
C5 C 0.8533(3) 0.7684(3) 1.0862(2)
H3 H 0.86960 0.75430 1.12660
C6 C 0.8912(2) 0.8063(2) 1.0468(2)
H4 H 0.93350 0.81800 1.06010
C7 C 0.8676(2) 0.8273(2) 0.9878(2)
H5 H 0.89390 0.85260 0.96010
C8 C 0.6803(2) 0.87372(18) 0.78276(19)
C9 C 0.6416(2) 0.9257(2) 0.8012(2)
H6 H 0.64090 0.93970 0.84480
C10 C 0.6041(3) 0.9570(3) 0.7549(3)
H7 H 0.57680 0.99150 0.76740
C11 C 0.6064(3) 0.9381(2) 0.6912(3)
H8 H 0.58110 0.95990 0.65990
C12 C 0.6449(2) 0.8880(2) 0.6730(3)
H9 H 0.64660 0.87540 0.62910
C13 C 0.6815(3) 0.8556(2) 0.7180(2)
H10 H 0.70780 0.82050 0.70480
C14 C 0.6816(3) 0.8942(2) 0.9893(2)
H11 H 0.72340 0.91620 0.98870
H12 H 0.68050 0.86370 1.02540
H13 H 0.64710 0.92600 0.99440
C15 C 0.6080(2) 0.8358(3) 0.9153(3)
H14 H 0.60890 0.80940 0.87610
H15 H 0.57890 0.87240 0.90900
H16 H 0.59280 0.80960 0.95150
P1 P 1.00000 1.00000 1.00000
F1 F 1.00000 1.00000 0.9240(2)
P2 P 0.50000 1.00000 1.00000
F2 F 0.50000 0.9238(2) 1.00000
F3 F 0.55457(17) 1.00028(17) 0.94556(17)
N1D N 0.90878(16) 0.78329(16) 0.83275(16)
N1H N 0.83275(16) 0.90878(16) 0.78329(16)
N2D N 0.82474(15) 0.72130(15) 0.84050(17)
N2H N 0.84050(15) 0.82474(15) 0.72130(17)
N3D N 0.92896(20) 0.67260(19) 0.85932(17)
N3H N 0.85932(20) 0.92896(19) 0.67260(17)
C1D C 0.89020(19) 0.72289(20) 0.8453(2)
C1H C 0.84530(19) 0.8902(2) 0.72289(20)
C2D C 0.96924(19) 0.80519(20) 0.81090(18)
C2H C 0.81090(19) 0.96924(20) 0.80519(18)
C3D C 1.0092(2) 0.7675(2) 0.7713(2)
C3H C 0.7713(2) 1.0092(2) 0.7675(2)
H1D H 0.99600 0.72550 0.75860
H1H H 0.75860 0.99600 0.72550
C4D C 1.0675(3) 0.7918(2) 0.7508(2)
C4H C 0.7508(3) 1.0675(2) 0.7918(2)
H2D H 1.09490 0.76620 0.72450
H2H H 0.72450 1.09490 0.76620
C5D C 1.0862(3) 0.8533(3) 0.7684(2)
C5H C 0.7684(3) 1.0862(3) 0.8533(2)
H3D H 1.12660 0.86960 0.75430
H3H H 0.75430 1.12660 0.86960
C6D C 1.0468(2) 0.8912(2) 0.8063(2)
C6H C 0.8063(2) 1.0468(2) 0.8912(2)
H4D H 1.06010 0.93350 0.81800
H4H H 0.81800 1.06010 0.93350
C7D C 0.9878(2) 0.8676(2) 0.8273(2)
C7H C 0.8273(2) 0.9878(2) 0.8676(2)
H5D H 0.96010 0.89390 0.85260
H5H H 0.85260 0.96010 0.89390
C8D C 0.78276(20) 0.68030(18) 0.87372(19)
C8H C 0.87372(20) 0.78276(18) 0.68030(19)
C9D C 0.8012(2) 0.6416(2) 0.9257(2)
C9H C 0.9257(2) 0.8012(2) 0.6416(2)
H6D H 0.84480 0.64090 0.93970
H6H H 0.93970 0.84480 0.64090
C10D C 0.7549(3) 0.6041(3) 0.9570(3)
C10H C 0.9570(3) 0.7549(3) 0.6041(3)
H7D H 0.76740 0.57680 0.99150
H7H H 0.99150 0.76740 0.57680
C11D C 0.6912(3) 0.6064(2) 0.9381(3)
C11H C 0.9381(3) 0.6912(2) 0.6064(3)
H8D H 0.65990 0.58110 0.95990
H8H H 0.95990 0.65990 0.58110
C12D C 0.6730(2) 0.6449(2) 0.8880(3)
C12H C 0.8880(2) 0.6730(2) 0.6449(3)
H9D H 0.62910 0.64660 0.87540
H9H H 0.87540 0.62910 0.64660
C13D C 0.7180(3) 0.6815(2) 0.8556(2)
C13H C 0.8556(3) 0.7180(2) 0.6815(2)
H10D H 0.70480 0.70780 0.82050
H10H H 0.82050 0.70480 0.70780
C14D C 0.9893(3) 0.6816(2) 0.8942(2)
C14H C 0.8942(3) 0.9893(2) 0.6816(2)
H11D H 0.98870 0.72340 0.91620
H11H H 0.91620 0.98870 0.72340
H12D H 1.02540 0.68050 0.86370
H12H H 0.86370 1.02540 0.68050
H13D H 0.99440 0.64710 0.92600
H13H H 0.92600 0.99440 0.64710
C15D C 0.9153(2) 0.6080(3) 0.8358(3)
C15H C 0.8358(2) 0.9153(3) 0.6080(3)
H14D H 0.87610 0.60890 0.80940
H14H H 0.80940 0.87610 0.60890
H15D H 0.90900 0.57890 0.87240
H15H H 0.87240 0.90900 0.57890
H16D H 0.95150 0.59280 0.80960
H16H H 0.80960 0.95150 0.59280
F1B F 1.00000 1.00000 1.0760(2)
F1D F 0.92400 1.00000 1.0000(2)
F1F F 1.07600 1.00000 1.0000(2)
F1H F 1.00000 0.92400 1.0000(2)
F1J F 1.00000 1.07600 1.0000(2)
F2A F 0.50000 1.0762(2) 1.00000
F3A F 0.44543(17) 0.99972(17) 0.94556(17)
F3B F 0.44543(17) 1.00028(17) 1.05444(17)
F3C F 0.55457(17) 0.99972(17) 1.05444(17)
#END
