
#######################################################################
#
#                 Cambridge Crystallographic Data Centre
#                                CCDC
#
#######################################################################
#
# If this CIF has been generated from an entry in the Cambridge
# Structural Database, then it will include bibliographic, chemical,
# crystal, experimental, refinement or atomic coordinate data resulting
# from the CCDC's data processing and validation procedures.
#
#######################################################################

data_CSD_CIF_RALJIB
_audit_creation_date 2021-10-18
_audit_creation_method CSD-ConQuest-V1
_database_code_CSD RALJIB
_database_code_depnum_ccdc_archive 'CCDC 2051011'
_chemical_formula_sum 'C20 H21 N3 O6'
_chemical_formula_moiety
;
C20 H21 N3 O6
;
_journal_coden_Cambridge 1003
_journal_year 2021
_journal_name_full 'J.Chem.Cryst. '
loop_
_publ_author_name
"Xiaoxue Liu"
"Zhenming Yin"
_chemical_name_systematic
;
2-methyl-2-{[(1H-pyrrole-2-carbonyl)oxy]methyl}propane-1,3-diyl 
bis(1H-pyrrole-2-carboxylate)
;
_cell_volume   3996.984
_exptl_crystal_colour 'colorless'
_exptl_crystal_density_diffrn 1.327
_exptl_crystal_description 'block'
_diffrn_ambient_temperature 139.5
#These two values have been output from a single CSD field.
_refine_ls_R_factor_gt 0.0314
_refine_ls_wR_factor_gt 0.0314
_symmetry_cell_setting cubic
_symmetry_space_group_name_H-M 'P -4 3 n'
_symmetry_Int_Tables_number 218
loop_
_symmetry_equiv_pos_site_id
_symmetry_equiv_pos_as_xyz
1 x,y,z
2 -x,-y,z
3 -x,y,-z
4 x,-y,-z
5 z,x,y
6 z,-x,-y
7 -z,-x,y
8 -z,x,-y
9 y,z,x
10 -y,z,-x
11 y,-z,-x
12 -y,-z,x
13 1/2+y,1/2+x,1/2+z
14 1/2-y,1/2-x,1/2+z
15 1/2+y,1/2-x,1/2-z
16 1/2-y,1/2+x,1/2-z
17 1/2+x,1/2+z,1/2+y
18 1/2-x,1/2+z,1/2-y
19 1/2-x,1/2-z,1/2+y
20 1/2+x,1/2-z,1/2-y
21 1/2+z,1/2+y,1/2+x
22 1/2+z,1/2-y,1/2-x
23 1/2-z,1/2+y,1/2-x
24 1/2-z,1/2-y,1/2+x
_cell_length_a 15.87002(19)
_cell_length_b 15.87002(19)
_cell_length_c 15.87002(19)
_cell_angle_alpha 90
_cell_angle_beta 90
_cell_angle_gamma 90
_cell_formula_units_Z 8
loop_
_atom_type_symbol
_atom_type_radius_bond
C 0.68
H 0.23
N 0.68
O 0.68
loop_
_atom_site_label
_atom_site_type_symbol
_atom_site_fract_x
_atom_site_fract_y
_atom_site_fract_z
O1 O 0.45027(8) 0.76068(9) 0.62843(11)
O2 O 0.42650(9) 0.90029(10) 0.62673(12)
N1 N 0.60755(12) 0.9215(1) 0.61548(13)
H1 H 0.58481 0.97038 0.62104
C1 C 0.34871(14) 0.65129(14) 0.65129(14)
C2 C 0.36126(12) 0.74445(12) 0.63151(14)
H2 H 0.33554 0.75816 0.57778
H3 H 0.33512 0.77881 0.67477
C3 C 0.47459(14) 0.84113(12) 0.62348(14)
C4 C 0.56533(14) 0.84651(13) 0.61429(13)
C5 C 0.62392(14) 0.78313(13) 0.60403(13)
H4 H 0.61279 0.72568 0.60097
C6 C 0.70334(14) 0.82144(14) 0.59907(14)
H5 H 0.75476 0.79422 0.59205
C7 C 0.69097(14) 0.90635(14) 0.60649(15)
H6 H 0.73306 0.94711 0.60551
C8 C 0.40453(13) 0.59547(13) 0.59547(13)
H7 H 0.38752 0.53771 0.60130
H8? H 0.38752 0.53771 0.60130
H9? H 0.38752 0.53771 0.60130
H7I H 0.46229 0.60130 0.61248
H7F H 0.39870 0.61248 0.53771
O1F O 0.37157(8) 0.54973(9) 0.76068(11)
O2F O 0.37327(9) 0.5735(1) 0.90029(12)
N1F N 0.38452(12) 0.39245(10) 0.92150(13)
H1F H 0.37896 0.41519 0.97038
C2F C 0.36849(12) 0.63874(12) 0.74445(14)
H2F H 0.42222 0.66446 0.75816
H3F H 0.32523 0.66488 0.77881
C3F C 0.37652(14) 0.52541(12) 0.84113(14)
C4F C 0.38571(14) 0.43467(13) 0.84651(13)
C5F C 0.39597(14) 0.37608(13) 0.78313(13)
H4F H 0.39903 0.38721 0.72568
C6F C 0.40093(14) 0.29666(14) 0.82144(14)
H5F H 0.40795 0.24524 0.79422
C7F C 0.39351(14) 0.30903(14) 0.90635(15)
H6F H 0.39449 0.26694 0.94711
O1I O 0.23932(8) 0.62843(9) 0.54973(11)
O2I O 0.09971(9) 0.62673(10) 0.57350(12)
N1I N 0.07850(12) 0.61548(10) 0.39245(13)
H1I H 0.02962 0.62104 0.41519
C2I C 0.25555(12) 0.63151(12) 0.63874(14)
H2I H 0.24184 0.57778 0.66446
H3I H 0.22119 0.67477 0.66488
C3I C 0.15887(14) 0.62348(12) 0.52541(14)
C4I C 0.15349(14) 0.61429(13) 0.43467(13)
C5I C 0.21687(14) 0.60403(13) 0.37608(13)
H4I H 0.27432 0.60097 0.38721
C6I C 0.17856(14) 0.59907(14) 0.29666(14)
H5I H 0.20578 0.59205 0.24524
C7I C 0.09365(14) 0.60649(14) 0.30903(15)
H6I H 0.05289 0.60551 0.26694
#END

data_CSD_CIF_BUPVIR
_audit_creation_date 1983-12-16
_audit_creation_method CSD-ConQuest-V1
_database_code_CSD BUPVIR
_database_code_depnum_ccdc_archive 'CCDC 1117043'
_chemical_formula_sum 'C24 H28 Cr4 S4'
_chemical_formula_moiety
;
C24 H28 Cr4 S4
;
_journal_coden_Cambridge 36
_journal_volume 248
_journal_year 1983
_journal_page_first 309
_journal_name_full 'J.Organomet.Chem. '
loop_
_publ_author_name
"A.A.Pasynskii"
"I.L.Eremenko"
"Yu.V.Rakitin"
"V.M.Novotortsev"
"O.G.Ellert"
"V.T.Kalinnikov"
"V.E.Shklover"
"Yu.T.Struchkov"
"S.V.Lindeman"
"T.Kh.Kurbanov"
"G.Sh.Gasanov"
_chemical_name_systematic
;
tetrakis((\m~3~-Sulfido)-(\h^5^-methylcyclopentadienyl)-chromium)
;
_cell_volume   4232.660
_exptl_crystal_colour 'black'
_exptl_special_details
;
Space group given as P43n should be P-43n

;
_diffrn_ambient_temperature 173.15
#These two values have been output from a single CSD field.
_refine_ls_R_factor_gt 0.042
_refine_ls_wR_factor_gt 0.042
_symmetry_cell_setting cubic
_symmetry_space_group_name_H-M 'P -4 3 n'
_symmetry_Int_Tables_number 218
loop_
_symmetry_equiv_pos_site_id
_symmetry_equiv_pos_as_xyz
1 x,y,z
2 z,x,y
3 y,z,x
4 x,-y,-z
5 z,-x,-y
6 y,-z,-x
7 -x,y,-z
8 -z,x,-y
9 -y,z,-x
10 -x,-y,z
11 -z,-x,y
12 -y,-z,x
13 1/2+y,1/2+x,1/2+z
14 1/2+x,1/2+z,1/2+y
15 1/2+z,1/2+y,1/2+x
16 1/2-y,1/2+x,1/2-z
17 1/2-x,1/2+z,1/2-y
18 1/2-z,1/2+y,1/2-x
19 1/2+y,1/2-x,1/2-z
20 1/2+x,1/2-z,1/2-y
21 1/2+z,1/2-y,1/2-x
22 1/2-y,1/2-x,1/2+z
23 1/2-x,1/2-z,1/2+y
24 1/2-z,1/2-y,1/2+x
_cell_length_a 16.176(6)
_cell_length_b 16.176(6)
_cell_length_c 16.176(6)
_cell_angle_alpha 90
_cell_angle_beta 90
_cell_angle_gamma 90
_cell_formula_units_Z 6
loop_
_atom_type_symbol
_atom_type_radius_bond
C 0.68
Cr 1.35
S 1.02
loop_
_atom_site_label
_atom_site_type_symbol
_atom_site_fract_x
_atom_site_fract_y
_atom_site_fract_z
Cr1 Cr 0.31112 0.43219 0.05613
S1 S 0.17347 0.41801 0.06789
C1 C 0.32050 0.35220 0.16990
C2 C 0.43760 0.39470 0.09520
C3 C 0.40040 0.32710 0.05230
C4 C 0.38920 0.40830 0.16790
C5 C 0.32790 0.30070 0.09850
C6 C 0.27340 0.23000 0.07560
Cr1C Cr 0.31112 0.56781 -0.05613
Cr1P Cr 0.18888 0.55613 0.06781
Cr1V Cr 0.18888 0.44387 -0.06781
S1P S 0.32653 0.56789 0.08199
S1V S 0.32653 0.43211 -0.08199
S1C S 0.17347 0.58199 -0.06789
C1C C 0.32050 0.64780 -0.16990
C2C C 0.43760 0.60530 -0.09520
C3C C 0.40040 0.67290 -0.05230
C4C C 0.38920 0.59170 -0.16790
C5C C 0.32790 0.69930 -0.09850
C1P C 0.17950 0.66990 0.14780
C2P C 0.06240 0.59520 0.10530
C3P C 0.09960 0.55230 0.17290
C4P C 0.11080 0.66790 0.09170
C5P C 0.17210 0.59850 0.19930
C1V C 0.17950 0.33010 -0.14780
C2V C 0.06240 0.40480 -0.10530
C3V C 0.09960 0.44770 -0.17290
C4V C 0.11080 0.33210 -0.09170
C5V C 0.17210 0.40150 -0.19930
C6C C 0.27340 0.77000 -0.07560
C6P C 0.22660 0.57560 0.27000
C6V C 0.22660 0.42440 -0.27000
#END

data_CSD_CIF_BUPVIR01
_audit_creation_date 1987-05-13
_audit_creation_method CSD-ConQuest-V1
_database_code_CSD BUPVIR01
_chemical_formula_sum 'C24 H28 Cr4 S4'
_chemical_formula_moiety
;
C24 H28 Cr4 S4
;
_journal_coden_Cambridge 93
_journal_volume 285
_journal_year 1985
_journal_page_first 1413
_journal_name_full 'Dokl.Akad.Nauk SSSR(Russ.)(Proc.Nat.Acad.Sci.USSR) '
loop_
_publ_author_name
"Yu.L.Slovokhotov"
"M.Yu.Antipin"
"R.G.Gerr"
"A.I.Yanovsky"
"Yu.T.Struchkov"
_chemical_name_systematic
;
tetrakis((\m~3~-Sulfido)-(\h^5^-methylcyclopentadienyl)-chromium)
;
_cell_volume   4215.414
_exptl_crystal_density_diffrn 1.543
_diffrn_ambient_temperature 153.15
_refine_special_details
;
deformation density refinement

;
#These two values have been output from a single CSD field.
_refine_ls_R_factor_gt 0.0213
_refine_ls_wR_factor_gt 0.0213
_symmetry_cell_setting cubic
_symmetry_space_group_name_H-M 'P -4 3 n'
_symmetry_Int_Tables_number 218
loop_
_symmetry_equiv_pos_site_id
_symmetry_equiv_pos_as_xyz
1 x,y,z
2 z,x,y
3 y,z,x
4 x,-y,-z
5 z,-x,-y
6 y,-z,-x
7 -x,y,-z
8 -z,x,-y
9 -y,z,-x
10 -x,-y,z
11 -z,-x,y
12 -y,-z,x
13 1/2+y,1/2+x,1/2+z
14 1/2+x,1/2+z,1/2+y
15 1/2+z,1/2+y,1/2+x
16 1/2-y,1/2+x,1/2-z
17 1/2-x,1/2+z,1/2-y
18 1/2-z,1/2+y,1/2-x
19 1/2+y,1/2-x,1/2-z
20 1/2+x,1/2-z,1/2-y
21 1/2+z,1/2-y,1/2-x
22 1/2-y,1/2-x,1/2+z
23 1/2-x,1/2-z,1/2+y
24 1/2-z,1/2-y,1/2+x
_cell_length_a 16.154(3)
_cell_length_b 16.154(3)
_cell_length_c 16.154(3)
_cell_angle_alpha 90
_cell_angle_beta 90
_cell_angle_gamma 90
_cell_formula_units_Z 6
loop_
_atom_type_symbol
_atom_type_radius_bond
C 0.68
H 0.23
Cr 1.35
S 1.02
loop_
_atom_site_label
_atom_site_type_symbol
_atom_site_fract_x
_atom_site_fract_y
_atom_site_fract_z
Cr1 Cr -0.31138(3) -0.43242(2) -0.05611(2)
S1 S -0.17346(4) -0.41802(4) -0.06773(5)
C1 C -0.3227(3) -0.3528(4) -0.1684(8)
C2 C -0.3888(4) -0.4072(4) -0.1678(3)
C3 C -0.4374(2) -0.3938(2) -0.0959(3)
C4 C -0.4002(2) -0.3267(2) -0.0536(2)
C5 C -0.3288(2) -0.3014(2) -0.0970(2)
C6 C -0.2733(4) -0.2304(3) -0.0722(6)
H1 H -0.27600 -0.35000 -0.21300
H2 H -0.40200 -0.45400 -0.21300
H3 H -0.49000 -0.42600 -0.07800
H4 H -0.42200 -0.30100 0.00100
H5 H -0.30000 -0.17400 -0.09800
H6 H -0.21400 -0.24000 -0.10400
H7 H -0.26000 -0.22800 -0.00700
Cr1C Cr -0.31138(3) -0.56758(2) 0.05611(2)
Cr1P Cr -0.18862(3) -0.55611(2) -0.06758(2)
Cr1V Cr -0.18862(3) -0.44389(2) 0.06758(2)
S1P S -0.32654(4) -0.56773(4) -0.08198(5)
S1V S -0.32654(4) -0.43227(4) 0.08198(5)
S1C S -0.17346(4) -0.58198(4) 0.06773(5)
C1C C -0.3227(3) -0.6472(4) 0.1684(8)
C2C C -0.3888(4) -0.5928(4) 0.1678(3)
C3C C -0.4374(2) -0.6062(2) 0.0959(3)
C4C C -0.4002(2) -0.6733(2) 0.0536(2)
C5C C -0.3288(2) -0.6986(2) 0.0970(2)
C1P C -0.1773(3) -0.6684(4) -0.1472(8)
C2P C -0.1112(4) -0.6678(4) -0.0928(3)
C3P C -0.0626(2) -0.5959(2) -0.1062(3)
C4P C -0.0998(2) -0.5536(2) -0.1733(2)
C5P C -0.1712(2) -0.5970(2) -0.1986(2)
C1V C -0.1773(3) -0.3316(4) 0.1472(8)
C2V C -0.1112(4) -0.3322(4) 0.0928(3)
C3V C -0.0626(2) -0.4041(2) 0.1062(3)
C4V C -0.0998(2) -0.4464(2) 0.1733(2)
C5V C -0.1712(2) -0.4030(2) 0.1986(2)
H1C H -0.27600 -0.65000 0.21300
H2C H -0.40200 -0.54600 0.21300
H3C H -0.49000 -0.57400 0.07800
H4C H -0.42200 -0.69900 -0.00100
C6C C -0.2733(4) -0.7696(3) 0.0722(6)
H1P H -0.22400 -0.71300 -0.15000
H2P H -0.09800 -0.71300 -0.04600
H3P H -0.01000 -0.57800 -0.07400
H4P H -0.07800 -0.49900 -0.19900
C6P C -0.2267(4) -0.5722(3) -0.2696(6)
H1V H -0.22400 -0.28700 0.15000
H2V H -0.09800 -0.28700 0.04600
H3V H -0.01000 -0.42200 0.07400
H4V H -0.07800 -0.50100 0.19900
C6V C -0.2267(4) -0.4278(3) 0.2696(6)
H5C H -0.30000 -0.82600 0.09800
H6C H -0.21400 -0.76000 0.10400
H7C H -0.26000 -0.77200 0.00700
H5P H -0.20000 -0.59800 -0.32600
H6P H -0.28600 -0.60400 -0.26000
H7P H -0.24000 -0.50700 -0.27200
H5V H -0.20000 -0.40200 0.32600
H6V H -0.28600 -0.39600 0.26000
H7V H -0.24000 -0.49300 0.27200
#END

data_CSD_CIF_CESHAK
_audit_creation_date 2007-03-22
_audit_creation_method CSD-ConQuest-V1
_database_code_CSD CESHAK
_database_code_depnum_ccdc_archive 'CCDC 616371'
_chemical_formula_sum 'C84 H124 Cu24 I10 Mo36 N73 O120 P3'
_chemical_formula_moiety
;
C84 H120 Cu24 I10 N72 14+,H4 N1 1+,3(Mo12 O40 P1 5-)
;
_journal_coden_Cambridge 179
_journal_volume 45
_journal_year 2006
_journal_page_first 7411
_journal_name_full 'Angew.Chem.,Int.Ed. '
loop_
_publ_author_name
"Xin-Long Wang"
"Chao Qin"
"En-Bo Wang"
"Zhong-Min Su"
"Yang-Guang Li"
"Lin Xu"
_chemical_name_systematic
;
Ammonium 
tetrakis(\m~6~-iodo)-hexakis(\m~4~-iodo)-dodecakis(\m~3~-4-(3-(1H-1,2,4-triazo
l-1-yl)propyl)-4H-1,2,4-triazole-N,N',N'')-tetracosa-copper(i) 
tris((\m~12~-phosphato)-tetracosakis(\m~2~-oxo)-dodecaoxo-dodeca-molybdenum)
;
_cell_volume  11270.914
_exptl_crystal_colour 'black'
_exptl_crystal_density_diffrn 3.07
_exptl_crystal_description 'block'
_diffrn_ambient_temperature 273
#These two values have been output from a single CSD field.
_refine_ls_R_factor_gt 0.0395
_refine_ls_wR_factor_gt 0.0395
_symmetry_cell_setting cubic
_symmetry_space_group_name_H-M 'P -4 3 n'
_symmetry_Int_Tables_number 218
loop_
_symmetry_equiv_pos_site_id
_symmetry_equiv_pos_as_xyz
1 x,y,z
2 -x,-y,z
3 -x,y,-z
4 x,-y,-z
5 z,x,y
6 z,-x,-y
7 -z,-x,y
8 -z,x,-y
9 y,z,x
10 -y,z,-x
11 y,-z,-x
12 -y,-z,x
13 1/2+y,1/2+x,1/2+z
14 1/2-y,1/2-x,1/2+z
15 1/2+y,1/2-x,1/2-z
16 1/2-y,1/2+x,1/2-z
17 1/2+x,1/2+z,1/2+y
18 1/2-x,1/2+z,1/2-y
19 1/2-x,1/2-z,1/2+y
20 1/2+x,1/2-z,1/2-y
21 1/2+z,1/2+y,1/2+x
22 1/2+z,1/2-y,1/2-x
23 1/2-z,1/2+y,1/2-x
24 1/2-z,1/2-y,1/2+x
_cell_length_a 22.4209(6)
_cell_length_b 22.4209(6)
_cell_length_c 22.4209(6)
_cell_angle_alpha 90
_cell_angle_beta 90
_cell_angle_gamma 90
_cell_formula_units_Z 2
loop_
_atom_type_symbol
_atom_type_radius_bond
C 0.68
H 0.23
Cu 1.17
I 1.52
Mo 1.39
N 0.68
O 0.68
P 1.05
loop_
_atom_site_label
_atom_site_type_symbol
_atom_site_fract_x
_atom_site_fract_y
_atom_site_fract_z
Cu1 Cu 0.02130(12) 0.10898(13) 0.89331(13)
Cu2 Cu 0.05357(8) 0.12860(8) 0.75434(9)
I1 I 0.00000 0.14758(8) 1.00000
I2 I 0.13529(4) 0.13529(4) 0.86471(4)
Mo1 Mo -0.01187(5) 0.13826(5) 0.61077(5)
Mo2 Mo 0.11234(5) 0.13830(5) 0.52066(5)
Mo3 Mo 0.09569(5) 0.24620(5) 0.62789(5)
P1 P 0.00000 0.25000 0.50000
C1 C 0.0346(7) 0.3194(7) 0.8928(7)
H1 H 0.01440 0.32540 0.92860
C2 C 0.0973(7) 0.2922(6) 0.8287(6)
H2 H 0.13030 0.27460 0.81090
C3 C -0.0305(7) 0.3823(7) 0.8290(8)
H3 H -0.05090 0.39240 0.86570
H4 H -0.01460 0.41900 0.81250
C4 C -0.0733(9) 0.3589(9) 0.7881(8)
H5 H -0.05250 0.35130 0.75090
H6 H -0.10180 0.39050 0.78020
C5 C -0.1079(12) 0.3051(8) 0.8019(9)
H7 H -0.13770 0.29950 0.77100
H8 H -0.12870 0.31120 0.83930
C6 C -0.0364(7) 0.2239(6) 0.7639(7)
H9 H -0.03180 0.23850 0.72530
C7 C -0.0656(8) 0.2131(10) 0.8538(8)
H10 H -0.08590 0.21810 0.88970
N1 N 0.0188(6) 0.3437(5) 0.8434(5)
N2 N 0.0592(6) 0.3270(6) 0.7999(6)
N3 N -0.0712(6) 0.2491(5) 0.8066(6)
N4 N -0.0272(5) 0.1692(7) 0.8429(6)
N5 N -0.0098(5) 0.1752(5) 0.7855(5)
N6 N 0.1122(5) 0.0824(5) 0.7151(5)
N7 N 0.00000 0.50000 0.00000
O1 O 0.0568(4) 0.1001(4) 0.5745(4)
O2 O -0.0582(4) 0.1165(4) 0.5438(4)
O3 O 0.1646(4) 0.0852(4) 0.5154(4)
O4 O 0.0440(4) 0.1801(4) 0.6629(4)
O5 O 0.1402(4) 0.1978(4) 0.4678(4)
O6 O -0.0694(4) 0.1997(4) 0.6252(4)
O7 O -0.0307(4) 0.0851(4) 0.6611(4)
O8 O 0.0339(4) 0.2110(4) 0.5448(4)
O9 O 0.1389(4) 0.1838(4) 0.5865(4)
O10 O 0.1402(4) 0.2572(4) 0.6873(4)
Cu1B Cu -0.02130(12) 0.10898(13) 1.10669(13)
Cu1F Cu 0.10669(12) -0.02130(13) 1.10898(13)
Cu1J Cu 0.10898(12) 0.10669(13) 0.97870(13)
Cu1K Cu -0.10898(12) 0.10669(13) 1.02130(13)
Cu1I Cu -0.10898(12) -0.10669(13) 0.97870(13)
Cu1C Cu 0.02130(12) -0.10898(13) 1.10669(13)
Cu1D Cu -0.10669(12) 0.02130(13) 1.10898(13)
Cu1E Cu -0.10669(12) -0.02130(13) 0.89102(13)
Cu1G Cu 0.10669(12) 0.02130(13) 0.89102(13)
Cu1H Cu 0.10898(12) -0.10669(13) 1.02130(13)
Cu1A Cu -0.02130(12) -0.10898(13) 0.89331(13)
Cu2G Cu 0.24566(8) 0.05357(8) 0.87140(9)
Cu2J Cu 0.12860(8) 0.24566(8) 0.94643(9)
Cu2E Cu -0.24566(8) -0.05357(8) 0.87140(9)
Cu2A Cu -0.05357(8) -0.12860(8) 0.75434(9)
Cu2I Cu -0.12860(8) -0.24566(8) 0.94643(9)
Cu2C Cu 0.05357(8) -0.12860(8) 1.24566(9)
Cu2H Cu 0.12860(8) -0.24566(8) 1.05357(9)
Cu2F Cu 0.24566(8) -0.05357(8) 1.12860(9)
Cu2K Cu -0.12860(8) 0.24566(8) 1.05357(9)
Cu2D Cu -0.24566(8) 0.05357(8) 1.12860(9)
Cu2B Cu -0.05357(8) 0.12860(8) 1.24566(9)
I1D I 0.00000 0.00000(8) 1.14758
I1H I 0.14758 0.00000(8) 1.00000
I1I I -0.14758 0.00000(8) 1.00000
I1A I 0.00000 -0.14758(8) 1.00000
I1E I 0.00000 0.00000(8) 0.85242
I2A I -0.13529(4) -0.13529(4) 0.86471(4)
I2C I 0.13529(4) -0.13529(4) 1.13529(4)
I2B I -0.13529(4) 0.13529(4) 1.13529(4)
Mo1B Mo 0.01187(5) 0.13826(5) 0.38923(5)
Mo1W Mo -0.11077(5) 0.36174(5) 0.48813(5)
Mo1U Mo 0.11077(5) 0.36174(5) 0.51187(5)
Mo2B Mo -0.11234(5) 0.13830(5) 0.47934(5)
Mo2W Mo -0.02066(5) 0.36170(5) 0.61234(5)
Mo2U Mo 0.02066(5) 0.36170(5) 0.38766(5)
Mo3W Mo -0.12789(5) 0.25380(5) 0.59569(5)
Mo3B Mo -0.09569(5) 0.24620(5) 0.37211(5)
Mo3U Mo 0.12789(5) 0.25380(5) 0.40431(5)
C1J C 0.3194(7) 0.1072(7) 0.9654(7)
C1G C 0.1072(7) 0.0346(7) 0.6806(7)
C1I C -0.3194(7) -0.1072(7) 0.9654(7)
C1E C -0.1072(7) -0.0346(7) 0.6806(7)
C1A C -0.0346(7) -0.3194(7) 0.8928(7)
C1F C 0.1072(7) -0.0346(7) 1.3194(7)
C1C C 0.0346(7) -0.3194(7) 1.1072(7)
C1H C 0.3194(7) -0.1072(7) 1.0346(7)
C1B C -0.0346(7) 0.3194(7) 1.1072(7)
C1K C -0.3194(7) 0.1072(7) 1.0346(7)
C1D C -0.1072(7) 0.0346(7) 1.3194(7)
H1J H 0.32540 0.07140 0.98560
H1G H 0.07140 0.01440 0.67460
H1I H -0.32540 -0.07140 0.98560
H1E H -0.07140 -0.01440 0.67460
H1A H -0.01440 -0.32540 0.92860
H1F H 0.07140 -0.01440 1.32540
H1C H 0.01440 -0.32540 1.07140
H1H H 0.32540 -0.07140 1.01440
H1B H -0.01440 0.32540 1.07140
H1K H -0.32540 0.07140 1.01440
H1D H -0.07140 0.01440 1.32540
C2G C 0.1713(7) 0.0973(6) 0.7078(6)
C2J C 0.2922(7) 0.1713(6) 0.9027(6)
C2A C -0.0973(7) -0.2922(6) 0.8287(6)
C2E C -0.1713(7) -0.0973(6) 0.7078(6)
C2I C -0.2922(7) -0.1713(6) 0.9027(6)
C2H C 0.2922(7) -0.1713(6) 1.0973(6)
C2C C 0.0973(7) -0.2922(6) 1.1713(6)
C2F C 0.1713(7) -0.0973(6) 1.2922(6)
C2D C -0.1713(7) 0.0973(6) 1.2922(6)
C2K C -0.2922(7) 0.1713(6) 1.0973(6)
C2B C -0.0973(7) 0.2922(6) 1.1713(6)
H2G H 0.18910 0.13030 0.72540
H2J H 0.27460 0.18910 0.86970
H2A H -0.13030 -0.27460 0.81090
H2E H -0.18910 -0.13030 0.72540
H2I H -0.27460 -0.18910 0.86970
H2H H 0.27460 -0.18910 1.13030
H2C H 0.13030 -0.27460 1.18910
H2F H 0.18910 -0.13030 1.27460
H2D H -0.18910 0.13030 1.27460
H2K H -0.27460 0.18910 1.13030
H2B H -0.13030 0.27460 1.18910
C3J C 0.3823(7) 0.1710(7) 1.0305(8)
C3G C 0.1710(7) -0.0305(7) 0.6177(8)
C3I C -0.3823(7) -0.1710(7) 1.0305(8)
C3E C -0.1710(7) 0.0305(7) 0.6177(8)
C3A C 0.0305(7) -0.3823(7) 0.8290(8)
C3F C 0.1710(7) 0.0305(7) 1.3823(8)
C3C C -0.0305(7) -0.3823(7) 1.1710(8)
C3H C 0.3823(7) -0.1710(7) 0.9695(8)
C3B C 0.0305(7) 0.3823(7) 1.1710(8)
C3K C -0.3823(7) 0.1710(7) 0.9695(8)
C3D C -0.1710(7) -0.0305(7) 1.3823(8)
H3J H 0.39240 0.13430 1.05090
H3G H 0.13430 -0.05090 0.60760
H3I H -0.39240 -0.13430 1.05090
H3E H -0.13430 0.05090 0.60760
H3A H 0.05090 -0.39240 0.86570
H3F H 0.13430 0.05090 1.39240
H3C H -0.05090 -0.39240 1.13430
H3H H 0.39240 -0.13430 0.94910
H3B H 0.05090 0.39240 1.13430
H3K H -0.39240 0.13430 0.94910
H3D H -0.13430 -0.05090 1.39240
H4J H 0.41900 0.18750 1.01460
H4G H 0.18750 -0.01460 0.58100
H4I H -0.41900 -0.18750 1.01460
H4E H -0.18750 0.01460 0.58100
H4A H 0.01460 -0.41900 0.81250
H4F H 0.18750 0.01460 1.41900
H4C H -0.01460 -0.41900 1.18750
H4H H 0.41900 -0.18750 0.98540
H4B H 0.01460 0.41900 1.18750
H4K H -0.41900 0.18750 0.98540
H4D H -0.18750 -0.01460 1.41900
C4J C 0.3589(9) 0.2119(9) 1.0733(8)
C4G C 0.2119(9) -0.0733(9) 0.6411(8)
C4I C -0.3589(9) -0.2119(9) 1.0733(8)
C4E C -0.2119(9) 0.0733(9) 0.6411(8)
C4A C 0.0733(9) -0.3589(9) 0.7881(8)
C4F C 0.2119(9) 0.0733(9) 1.3589(8)
C4C C -0.0733(9) -0.3589(9) 1.2119(8)
C4H C 0.3589(9) -0.2119(9) 0.9267(8)
C4B C 0.0733(9) 0.3589(9) 1.2119(8)
C4K C -0.3589(9) 0.2119(9) 0.9267(8)
C4D C -0.2119(9) -0.0733(9) 1.3589(8)
H5G H 0.24910 -0.05250 0.64870
H5J H 0.35130 0.24910 1.05250
H5A H 0.05250 -0.35130 0.75090
H5E H -0.24910 0.05250 0.64870
H5I H -0.35130 -0.24910 1.05250
H5H H 0.35130 -0.24910 0.94750
H5C H -0.05250 -0.35130 1.24910
H5F H 0.24910 0.05250 1.35130
H5D H -0.24910 -0.05250 1.35130
H5K H -0.35130 0.24910 0.94750
H5B H 0.05250 0.35130 1.24910
H6G H 0.21980 -0.10180 0.60950
H6J H 0.39050 0.21980 1.10180
H6A H 0.10180 -0.39050 0.78020
H6E H -0.21980 0.10180 0.60950
H6I H -0.39050 -0.21980 1.10180
H6H H 0.39050 -0.21980 0.89820
H6C H -0.10180 -0.39050 1.21980
H6F H 0.21980 0.10180 1.39050
H6D H -0.21980 -0.10180 1.39050
H6K H -0.39050 0.21980 0.89820
H6B H 0.10180 0.39050 1.21980
C5J C 0.3051(12) 0.1981(8) 1.1079(9)
C5G C 0.1981(12) -0.1079(8) 0.6949(9)
C5I C -0.3051(12) -0.1981(8) 1.1079(9)
C5E C -0.1981(12) 0.1079(8) 0.6949(9)
C5A C 0.1079(12) -0.3051(8) 0.8019(9)
C5F C 0.1981(12) 0.1079(8) 1.3051(9)
C5C C -0.1079(12) -0.3051(8) 1.1981(9)
C5H C 0.3051(12) -0.1981(8) 0.8921(9)
C5B C 0.1079(12) 0.3051(8) 1.1981(9)
C5K C -0.3051(12) 0.1981(8) 0.8921(9)
C5D C -0.1981(12) -0.1079(8) 1.3051(9)
H7G H 0.22900 -0.13770 0.70050
H7J H 0.29950 0.22900 1.13770
H7A H 0.13770 -0.29950 0.77100
H7E H -0.22900 0.13770 0.70050
H7I H -0.29950 -0.22900 1.13770
H7H H 0.29950 -0.22900 0.86230
H7C H -0.13770 -0.29950 1.22900
H7F H 0.22900 0.13770 1.29950
H7D H -0.22900 -0.13770 1.29950
H7K H -0.29950 0.22900 0.86230
H7B H 0.13770 0.29950 1.22900
H8G H 0.16070 -0.12870 0.68880
H8J H 0.31120 0.16070 1.12870
H8A H 0.12870 -0.31120 0.83930
H8E H -0.16070 0.12870 0.68880
H8I H -0.31120 -0.16070 1.12870
H8H H 0.31120 -0.16070 0.87130
H8C H -0.12870 -0.31120 1.16070
H8F H 0.16070 0.12870 1.31120
H8D H -0.16070 -0.12870 1.31120
H8K H -0.31120 0.16070 0.87130
H8B H 0.12870 0.31120 1.16070
C6J C 0.2239(7) 0.2361(6) 1.0364(7)
C6G C 0.2361(7) -0.0364(6) 0.7761(7)
C6I C -0.2239(7) -0.2361(6) 1.0364(7)
C6A C 0.0364(7) -0.2239(6) 0.7639(7)
C6E C -0.2361(7) 0.0364(6) 0.7761(7)
C6F C 0.2361(7) 0.0364(6) 1.2239(7)
C6H C 0.2239(7) -0.2361(6) 0.9636(7)
C6C C -0.0364(7) -0.2239(6) 1.2361(7)
C6B C 0.0364(7) 0.2239(6) 1.2361(7)
C6D C -0.2361(7) -0.0364(6) 1.2239(7)
C6K C -0.2239(7) 0.2361(6) 0.9636(7)
H9J H 0.23850 0.27470 1.03180
H9G H 0.27470 -0.03180 0.76150
H9I H -0.23850 -0.27470 1.03180
H9A H 0.03180 -0.23850 0.72530
H9E H -0.27470 0.03180 0.76150
H9F H 0.27470 0.03180 1.23850
H9H H 0.23850 -0.27470 0.96820
H9C H -0.03180 -0.23850 1.27470
H9B H 0.03180 0.23850 1.27470
H9D H -0.27470 -0.03180 1.23850
H9K H -0.23850 0.27470 0.96820
C7J C 0.2131(8) 0.1462(10) 1.0656(8)
C7G C 0.1462(8) -0.0656(10) 0.7869(8)
C7I C -0.2131(8) -0.1462(10) 1.0656(8)
C7E C -0.1462(8) 0.0656(10) 0.7869(8)
C7A C 0.0656(8) -0.2131(10) 0.8538(8)
C7F C 0.1462(8) 0.0656(10) 1.2131(8)
C7C C -0.0656(8) -0.2131(10) 1.1462(8)
C7H C 0.2131(8) -0.1462(10) 0.9344(8)
C7B C 0.0656(8) 0.2131(10) 1.1462(8)
C7K C -0.2131(8) 0.1462(10) 0.9344(8)
C7D C -0.1462(8) -0.0656(10) 1.2131(8)
H10J H 0.21810 0.11030 1.08590
H10G H 0.11030 -0.08590 0.78190
H10I H -0.21810 -0.11030 1.08590
H10E H -0.11030 0.08590 0.78190
H10A H 0.08590 -0.21810 0.88970
H10F H 0.11030 0.08590 1.21810
H10C H -0.08590 -0.21810 1.11030
H10H H 0.21810 -0.11030 0.91410
H10B H 0.08590 0.21810 1.11030
H10K H -0.21810 0.11030 0.91410
H10D H -0.11030 -0.08590 1.21810
N1J N 0.3437(6) 0.1566(5) 0.9812(5)
N1G N 0.1566(6) 0.0188(5) 0.6563(5)
N1I N -0.3437(6) -0.1566(5) 0.9812(5)
N1E N -0.1566(6) -0.0188(5) 0.6563(5)
N1A N -0.0188(6) -0.3437(5) 0.8434(5)
N1F N 0.1566(6) -0.0188(5) 1.3437(5)
N1C N 0.0188(6) -0.3437(5) 1.1566(5)
N1H N 0.3437(6) -0.1566(5) 1.0188(5)
N1B N -0.0188(6) 0.3437(5) 1.1566(5)
N1K N -0.3437(6) 0.1566(5) 1.0188(5)
N1D N -0.1566(6) 0.0188(5) 1.3437(5)
N2G N 0.2001(6) 0.0592(6) 0.6730(6)
N2J N 0.3270(6) 0.2001(6) 0.9408(6)
N2A N -0.0592(6) -0.3270(6) 0.7999(6)
N2E N -0.2001(6) -0.0592(6) 0.6730(6)
N2I N -0.3270(6) -0.2001(6) 0.9408(6)
N2H N 0.3270(6) -0.2001(6) 1.0592(6)
N2C N 0.0592(6) -0.3270(6) 1.2001(6)
N2F N 0.2001(6) -0.0592(6) 1.3270(6)
N2D N -0.2001(6) 0.0592(6) 1.3270(6)
N2K N -0.3270(6) 0.2001(6) 1.0592(6)
N2B N -0.0592(6) 0.3270(6) 1.2001(6)
N3J N 0.2491(6) 0.1934(5) 1.0712(6)
N3G N 0.1934(6) -0.0712(5) 0.7509(6)
N3I N -0.2491(6) -0.1934(5) 1.0712(6)
N3E N -0.1934(6) 0.0712(5) 0.7509(6)
N3A N 0.0712(6) -0.2491(5) 0.8066(6)
N3F N 0.1934(6) 0.0712(5) 1.2491(6)
N3C N -0.0712(6) -0.2491(5) 1.1934(6)
N3H N 0.2491(6) -0.1934(5) 0.9288(6)
N3B N 0.0712(6) 0.2491(5) 1.1934(6)
N3K N -0.2491(6) 0.1934(5) 0.9288(6)
N3D N -0.1934(6) -0.0712(5) 1.2491(6)
N4J N 0.1692(5) 0.1571(7) 1.0272(6)
N4G N 0.1571(5) -0.0272(7) 0.8308(6)
N4I N -0.1692(5) -0.1571(7) 1.0272(6)
N4E N -0.1571(5) 0.0272(7) 0.8308(6)
N4A N 0.0272(5) -0.1692(7) 0.8429(6)
N4F N 0.1571(5) 0.0272(7) 1.1692(6)
N4C N -0.0272(5) -0.1692(7) 1.1571(6)
N4H N 0.1692(5) -0.1571(7) 0.9728(6)
N4B N 0.0272(5) 0.1692(7) 1.1571(6)
N4K N -0.1692(5) 0.1571(7) 0.9728(6)
N4D N -0.1571(5) -0.0272(7) 1.1692(6)
N5J N 0.1752(5) 0.2145(5) 1.0098(5)
N5G N 0.2145(5) -0.0098(5) 0.8248(5)
N5I N -0.1752(5) -0.2145(5) 1.0098(5)
N5A N 0.0098(5) -0.1752(5) 0.7855(5)
N5E N -0.2145(5) 0.0098(5) 0.8248(5)
N5F N 0.2145(5) 0.0098(5) 1.1752(5)
N5H N 0.1752(5) -0.2145(5) 0.9902(5)
N5C N -0.0098(5) -0.1752(5) 1.2145(5)
N5B N 0.0098(5) 0.1752(5) 1.2145(5)
N5D N -0.2145(5) -0.0098(5) 1.1752(5)
N5K N -0.1752(5) 0.2145(5) 0.9902(5)
N6G N 0.2849(5) 0.1122(5) 0.9176(5)
N6J N 0.0824(5) 0.2849(5) 0.8878(5)
N6E N -0.2849(5) -0.1122(5) 0.9176(5)
N6A N -0.1122(5) -0.0824(5) 0.7151(5)
N6I N -0.0824(5) -0.2849(5) 0.8878(5)
N6C N 0.1122(5) -0.0824(5) 1.2849(5)
N6H N 0.0824(5) -0.2849(5) 1.1122(5)
N6F N 0.2849(5) -0.1122(5) 1.0824(5)
N6K N -0.0824(5) 0.2849(5) 1.1122(5)
N6D N -0.2849(5) 0.1122(5) 1.0824(5)
N6B N -0.1122(5) 0.0824(5) 1.2849(5)
O1B O -0.0568(4) 0.1001(4) 0.4255(4)
O1W O -0.0745(4) 0.3999(4) 0.5568(4)
O1U O 0.0745(4) 0.3999(4) 0.4432(4)
O2B O 0.0582(4) 0.1165(4) 0.4562(4)
O2W O -0.0438(4) 0.3835(4) 0.4418(4)
O2U O 0.0438(4) 0.3835(4) 0.5582(4)
O3W O -0.0154(4) 0.4148(4) 0.6646(4)
O3B O -0.1646(4) 0.0852(4) 0.4846(4)
O3U O 0.0154(4) 0.4148(4) 0.3354(4)
O4W O -0.1629(4) 0.3199(4) 0.5440(4)
O4B O -0.0440(4) 0.1801(4) 0.3371(4)
O4U O 0.1629(4) 0.3199(4) 0.4560(4)
O5W O 0.0322(4) 0.3022(4) 0.6402(4)
O5B O -0.1402(4) 0.1978(4) 0.5322(4)
O5U O -0.0322(4) 0.3022(4) 0.3598(4)
O6U O 0.1252(4) 0.3003(4) 0.5694(4)
O6W O -0.1252(4) 0.3003(4) 0.4306(4)
O6B O 0.0694(4) 0.1997(4) 0.3748(4)
O7U O 0.1611(4) 0.4149(4) 0.5307(4)
O7W O -0.1611(4) 0.4149(4) 0.4693(4)
O7B O 0.0307(4) 0.0851(4) 0.3389(4)
O8W O -0.0448(4) 0.2890(4) 0.5339(4)
O8B O -0.0339(4) 0.2110(4) 0.4552(4)
O8U O 0.0448(4) 0.2890(4) 0.4661(4)
O9B O -0.1389(4) 0.1838(4) 0.4135(4)
O9U O 0.0865(4) 0.3162(4) 0.3611(4)
O9W O -0.0865(4) 0.3162(4) 0.6389(4)
O10B O -0.1402(4) 0.2572(4) 0.3127(4)
O10U O 0.1873(4) 0.2428(4) 0.3598(4)
O10W O -0.1873(4) 0.2428(4) 0.6402(4)
#END

data_CSD_CIF_CESVEC
_audit_creation_date 2007-03-22
_audit_creation_method CSD-ConQuest-V1
_database_code_CSD CESVEC
_database_code_depnum_ccdc_archive 'CCDC 271398'
_chemical_formula_sum 'C24 H30 Cd1 Cl2 N12 O8 S6'
_chemical_formula_moiety
;
C24 H30 Cd1 N12 S6 2+,2(Cl1 O4 1-)
;
_journal_coden_Cambridge 29
_journal_volume 632
_journal_year 2006
_journal_page_first 2505
_journal_name_full 'Z.Anorg.Allg.Chem. '
loop_
_publ_author_name
"A.Hosseinian"
"A.R.Mahjoub"
_chemical_name_systematic
;
tris(2,2'-diamino-5,5'-dimethyl-4,4'-bithiazole-N,N')-cadmium(ii) 
diperchlorate
;
_cell_volume   7404.613
_exptl_crystal_colour 'yellow'
_exptl_crystal_density_diffrn 1.777
_exptl_crystal_description 'cube'
_diffrn_ambient_temperature 120
#These two values have been output from a single CSD field.
_refine_ls_R_factor_gt 0.0407
_refine_ls_wR_factor_gt 0.0407
_symmetry_cell_setting cubic
_symmetry_space_group_name_H-M 'P -4 3 n'
_symmetry_Int_Tables_number 218
loop_
_symmetry_equiv_pos_site_id
_symmetry_equiv_pos_as_xyz
1 x,y,z
2 -x,-y,z
3 -x,y,-z
4 x,-y,-z
5 z,x,y
6 z,-x,-y
7 -z,-x,y
8 -z,x,-y
9 y,z,x
10 -y,z,-x
11 y,-z,-x
12 -y,-z,x
13 1/2+y,1/2+x,1/2+z
14 1/2-y,1/2-x,1/2+z
15 1/2+y,1/2-x,1/2-z
16 1/2-y,1/2+x,1/2-z
17 1/2+x,1/2+z,1/2+y
18 1/2-x,1/2+z,1/2-y
19 1/2-x,1/2-z,1/2+y
20 1/2+x,1/2-z,1/2-y
21 1/2+z,1/2+y,1/2+x
22 1/2+z,1/2-y,1/2-x
23 1/2-z,1/2+y,1/2-x
24 1/2-z,1/2-y,1/2+x
_cell_length_a 19.491(3)
_cell_length_b 19.491(3)
_cell_length_c 19.491(3)
_cell_angle_alpha 90
_cell_angle_beta 90
_cell_angle_gamma 90
_cell_formula_units_Z 8
loop_
_atom_type_symbol
_atom_type_radius_bond
C 0.68
H 0.23
Cd 1.69
Cl 0.99
N 0.68
O 0.68
S 1.02
loop_
_atom_site_label
_atom_site_type_symbol
_atom_site_fract_x
_atom_site_fract_y
_atom_site_fract_z
Cd1 Cd 0.171897(13) 0.171897(13) 0.171897(13)
S1 S 0.30619(5) -0.01047(5) 0.09753(5)
S2 S 0.31227(4) 0.31238(4) 0.02307(4)
N1 N 0.22273(16) 0.09172(15) 0.09442(16)
N2 N 0.25734(16) 0.23201(15) 0.11114(15)
N3 N 0.1702(2) -0.01245(18) 0.1240(2)
H1 H 0.12950 0.00680 0.12720
H2 H 0.17500 -0.05660 0.13190
N4 N 0.23839(18) 0.34907(16) 0.13432(17)
H3 H 0.21440 0.34010 0.17150
H4 H 0.24530 0.39180 0.12160
C1 C 0.2248(2) 0.02535(19) 0.1072(2)
C2 C 0.33902(19) 0.06978(18) 0.07426(19)
C3 C 0.2876(2) 0.11589(19) 0.07520(18)
C4 C 0.29253(18) 0.19017(18) 0.06377(17)
C5 C 0.32455(18) 0.22472(18) 0.01226(18)
C6 C 0.26446(18) 0.29742(19) 0.09693(19)
C7 C 0.4143(2) 0.0788(2) 0.0640(2)
H5 H 0.42640 0.12710 0.07030
H6 H 0.42670 0.06430 0.01750
H7 H 0.43920 0.05070 0.09750
C8 C 0.3641(2) 0.1983(2) -0.0482(2)
H8 H 0.35160 0.15040 -0.05680
H9 H 0.41330 0.20140 -0.03870
H10 H 0.35310 0.22590 -0.08880
Cl1 Cl 0.80859(4) 0.19141(4) 0.19141(4)
O1 O 0.7728(3) 0.1731(4) 0.1319(2)
O2 O 0.76600(16) 0.23400(16) 0.23400(16)
Cl2 Cl 0.50000 0.00000 0.25000
O3 O 0.55408(14) 0.02779(15) 0.20730(16)
Cl3 Cl 0.00000 0.00000 0.00000
O4 O 0.04187(18) 0.04187(18) 0.04187(18)
S1D S 0.09753(5) 0.30619(5) -0.01047(5)
S1H S -0.01047(5) 0.09753(5) 0.30619(5)
S2H S 0.31238(4) 0.02307(4) 0.31227(4)
S2D S 0.02307(4) 0.31227(4) 0.31238(4)
N1D N 0.09442(16) 0.22273(15) 0.09172(16)
N1H N 0.09172(16) 0.09442(15) 0.22273(16)
N2D N 0.11114(16) 0.25734(15) 0.23201(15)
N2H N 0.23201(16) 0.11114(15) 0.25734(15)
N3H N -0.01245(20) 0.12400(18) 0.1702(2)
N3D N 0.1240(2) 0.17020(18) -0.01245(20)
H1H H 0.00680 0.12720 0.12950
H1D H 0.12720 0.12950 0.00680
H2H H -0.05660 0.13190 0.17500
H2D H 0.13190 0.17500 -0.05660
N4H N 0.34907(18) 0.13432(16) 0.23839(17)
N4D N 0.13432(18) 0.23839(16) 0.34907(17)
H3H H 0.34010 0.17150 0.21440
H3D H 0.17150 0.21440 0.34010
H4H H 0.39180 0.12160 0.24530
H4D H 0.12160 0.24530 0.39180
C1D C 0.1072(2) 0.22480(19) 0.02535(20)
C1H C 0.02535(20) 0.10720(19) 0.2248(2)
C2D C 0.07426(19) 0.33902(18) 0.06978(19)
C2H C 0.06978(19) 0.07426(18) 0.33902(19)
C3D C 0.0752(2) 0.28760(19) 0.11589(18)
C3H C 0.11589(20) 0.07520(19) 0.28760(18)
C4D C 0.06377(18) 0.29253(18) 0.19017(17)
C4H C 0.19017(18) 0.06377(18) 0.29253(17)
C5H C 0.22472(18) 0.01226(18) 0.32455(18)
C5D C 0.01226(18) 0.32455(18) 0.22472(18)
C6H C 0.29742(18) 0.09693(19) 0.26446(19)
C6D C 0.09693(18) 0.26446(19) 0.29742(19)
C7H C 0.0788(2) 0.0640(2) 0.4143(2)
C7D C 0.0640(2) 0.4143(2) 0.0788(2)
H5H H 0.12710 0.07030 0.42640
H5D H 0.07030 0.42640 0.12710
H6H H 0.06430 0.01750 0.42670
H6D H 0.01750 0.42670 0.06430
H7H H 0.05070 0.09750 0.43920
H7D H 0.09750 0.43920 0.05070
C8H C 0.1983(2) -0.0482(2) 0.3641(2)
C8D C -0.0482(2) 0.3641(2) 0.1983(2)
H8H H 0.15040 -0.05680 0.35160
H8D H -0.05680 0.35160 0.15040
H9H H 0.20140 -0.03870 0.41330
H9D H -0.03870 0.41330 0.20140
H10H H 0.22590 -0.08880 0.35310
H10D H -0.08880 0.35310 0.22590
O1F O 0.8681(3) 0.2272(4) 0.1731(2)
O1I O 0.8269(3) 0.1319(4) 0.2272(2)
O3A O 0.44592(14) -0.02779(15) 0.20730(16)
O3N O 0.52779(14) -0.05408(15) 0.29270(16)
O3O O 0.47221(14) 0.05408(15) 0.29270(16)
O4A O -0.04187(18) -0.04187(18) 0.04187(18)
O4B O -0.04187(18) 0.04187(18) -0.04187(18)
O4C O 0.04187(18) -0.04187(18) -0.04187(18)
#END

data_CSD_CIF_FEKPIV
_audit_creation_date 2005-05-03
_audit_creation_method CSD-ConQuest-V1
_database_code_CSD FEKPIV
_database_code_depnum_ccdc_archive 'CCDC 246707'
_chemical_formula_sum 'C24 H52 Ni4 O8 P4'
_chemical_formula_moiety
;
C24 H52 Ni4 O8 P4
;
_journal_coden_Cambridge 579
_journal_volume 24
_journal_year 2005
_journal_page_first 272
_journal_name_full 'Organometallics '
loop_
_publ_author_name
"J.Langer"
"H.Gorls"
"R.Fischer"
"D.Walther"
_chemical_name_systematic
;
tetrakis(\m~2~-2-Carboxyethyl-C,O,O)-tetrakis(trimethylphosphine-P)-tetra-nick
el
;
_cell_volume   6804.023
_exptl_crystal_colour 'yellow'
_exptl_crystal_density_diffrn 1.212
_exptl_crystal_description 'prism'
_exptl_crystal_preparation 'toluene'
_diffrn_ambient_temperature 183
#These two values have been output from a single CSD field.
_refine_ls_R_factor_gt 0.0414
_refine_ls_wR_factor_gt 0.0414
_symmetry_cell_setting cubic
_symmetry_space_group_name_H-M 'P -4 3 n'
_symmetry_Int_Tables_number 218
loop_
_symmetry_equiv_pos_site_id
_symmetry_equiv_pos_as_xyz
1 x,y,z
2 -x,-y,z
3 -x,y,-z
4 x,-y,-z
5 z,x,y
6 z,-x,-y
7 -z,-x,y
8 -z,x,-y
9 y,z,x
10 -y,z,-x
11 y,-z,-x
12 -y,-z,x
13 1/2+y,1/2+x,1/2+z
14 1/2-y,1/2-x,1/2+z
15 1/2+y,1/2-x,1/2-z
16 1/2-y,1/2+x,1/2-z
17 1/2+x,1/2+z,1/2+y
18 1/2-x,1/2+z,1/2-y
19 1/2-x,1/2-z,1/2+y
20 1/2+x,1/2-z,1/2-y
21 1/2+z,1/2+y,1/2+x
22 1/2+z,1/2-y,1/2-x
23 1/2-z,1/2+y,1/2-x
24 1/2-z,1/2-y,1/2+x
_cell_length_a 18.9491(5)
_cell_length_b 18.9491(5)
_cell_length_c 18.9491(5)
_cell_angle_alpha 90
_cell_angle_beta 90
_cell_angle_gamma 90
_cell_formula_units_Z 6
loop_
_atom_type_symbol
_atom_type_radius_bond
C 0.68
H 0.23
Ni 1.42
O 0.68
P 1.05
loop_
_atom_site_label
_atom_site_type_symbol
_atom_site_fract_x
_atom_site_fract_y
_atom_site_fract_z
Ni1 Ni 0.95464(3) 0.19091(2) 0.41114(3)
P1 P 0.85120(6) 0.15488(6) 0.38792(6)
O1 O 1.05197(14) 0.21587(13) 0.42634(13)
C1 C 0.9905(3) 0.1049(3) 0.3719(4)
H1 H 0.96300 0.06420 0.38970
H2 H 0.98670 0.10600 0.31980
O2 O 1.16186(16) 0.17632(16) 0.41488(19)
C2 C 1.0647(3) 0.0983(3) 0.3932(4)
H3 H 1.09150 0.07630 0.35420
H4 H 1.06760 0.06650 0.43450
C3 C 1.0983(2) 0.1668(2) 0.4116(2)
C4 C 0.7804(3) 0.2150(3) 0.4070(4)
H5 H 0.73530 0.19300 0.39430
H6 H 0.78680 0.25830 0.37950
H7 H 0.78050 0.22630 0.45740
C5 C 0.8385(3) 0.1316(4) 0.2949(3)
H8 H 0.78990 0.11540 0.28770
H9 H 0.87130 0.09390 0.28190
H10 H 0.84740 0.17320 0.26540
C6 C 0.8214(3) 0.0763(2) 0.4321(3)
H11 H 0.77320 0.06520 0.41700
H12 H 0.82210 0.08400 0.48330
H13 H 0.85270 0.03690 0.42020
Ni1W Ni 1.08886(3) 0.30909(2) 0.45464(3)
Ni1B Ni 1.04536(3) 0.19091(2) 0.58886(3)
Ni1U Ni 0.91114(3) 0.30909(2) 0.54536(3)
P1W P 1.11208(6) 0.34512(6) 0.35120(6)
P1B P 1.14880(6) 0.15488(6) 0.61208(6)
P1U P 0.88792(6) 0.34512(6) 0.64880(6)
O1W O 1.07366(14) 0.28413(13) 0.55197(13)
O1B O 0.94803(14) 0.21587(13) 0.57366(13)
O1U O 0.92634(14) 0.28413(13) 0.44803(13)
C1U C 0.8719(3) 0.3951(3) 0.5095(4)
C1B C 1.0095(3) 0.1049(3) 0.6281(4)
C1W C 1.1281(3) 0.3951(3) 0.4905(4)
H1U H 0.88970 0.43580 0.53700
H1B H 1.03700 0.06420 0.61030
H1W H 1.11030 0.43580 0.46300
H2U H 0.81980 0.39400 0.51330
H2B H 1.01330 0.10600 0.68020
H2W H 1.18020 0.39400 0.48670
O2U O 0.91488(16) 0.32368(16) 0.33814(19)
O2B O 0.83814(16) 0.17632(16) 0.58512(19)
O2W O 1.08512(16) 0.32368(16) 0.66186(19)
C2U C 0.8932(3) 0.4017(3) 0.4353(4)
C2B C 0.9353(3) 0.0983(3) 0.6068(4)
C2W C 1.1068(3) 0.4017(3) 0.5647(4)
H3U H 0.85420 0.42370 0.40850
H3B H 0.90850 0.07630 0.64580
H3W H 1.14580 0.42370 0.59150
H4U H 0.93450 0.43350 0.43240
H4B H 0.93240 0.06650 0.56550
H4W H 1.06550 0.43350 0.56760
C3U C 0.9116(2) 0.3332(2) 0.4017(2)
C3B C 0.9017(2) 0.1668(2) 0.5884(2)
C3W C 1.0884(2) 0.3332(2) 0.5983(2)
C4W C 1.0930(3) 0.2850(3) 0.2804(4)
C4B C 1.2196(3) 0.2150(3) 0.5930(4)
C4U C 0.9070(3) 0.2850(3) 0.7196(4)
H5W H 1.10570 0.30700 0.23530
H5B H 1.26470 0.19300 0.60570
H5U H 0.89430 0.30700 0.76470
H6W H 1.12050 0.24170 0.28680
H6B H 1.21320 0.25830 0.62050
H6U H 0.87950 0.24170 0.71320
H7W H 1.04260 0.27370 0.28050
H7B H 1.21950 0.22630 0.54260
H7U H 0.95740 0.27370 0.71950
C5W C 1.2051(3) 0.3684(4) 0.3385(3)
C5B C 1.1615(3) 0.1316(4) 0.7051(3)
C5U C 0.7949(3) 0.3684(4) 0.6615(3)
H8W H 1.21230 0.38460 0.28990
H8B H 1.21010 0.11540 0.71230
H8U H 0.78770 0.38460 0.71010
H9W H 1.21810 0.40610 0.37130
H9B H 1.12870 0.09390 0.71810
H9U H 0.78190 0.40610 0.62870
H10W H 1.23460 0.32680 0.34740
H10B H 1.15260 0.17320 0.73460
H10U H 0.76540 0.32680 0.65260
C6W C 1.0679(3) 0.4237(2) 0.3214(3)
C6B C 1.1786(3) 0.0763(2) 0.5679(3)
C6U C 0.9321(3) 0.4237(2) 0.6786(3)
H11W H 1.08300 0.43480 0.27320
H11B H 1.22680 0.06520 0.58300
H11U H 0.91700 0.43480 0.72680
H12W H 1.01670 0.41600 0.32210
H12B H 1.17790 0.08400 0.51670
H12U H 0.98330 0.41600 0.67790
H13W H 1.07980 0.46310 0.35270
H13B H 1.14730 0.03690 0.57980
H13U H 0.92020 0.46310 0.64730
#END

data_CSD_CIF_FISCOC
_audit_creation_date 2019-01-09
_audit_creation_method CSD-ConQuest-V1
_database_code_CSD FISCOC
_database_code_depnum_ccdc_archive 'CCDC 1856761'
_chemical_formula_sum 'C28.66 H31.99 N7.33 Ni1 O4 S2'
_chemical_formula_moiety
;
C26 H28 N6 Ni1 O4 S2,1.33(C2 H3 N1)
;
_journal_coden_Cambridge 29
_journal_volume 644
_journal_year 2018
_journal_page_first 1760
_journal_name_full 'Z.Anorg.Allg.Chem. '
loop_
_publ_author_name
"A.Jochim"
"M.Ceglarska"
"M.Rams"
"C.Nather"
_chemical_name_systematic
;
tetrakis(4-methoxypyridine)-bis(isothiocyanato)-nickel(ii) acetonitrile 
solvate
;
_cell_volume   5111.736
_exptl_crystal_colour 'blue'
_exptl_crystal_density_diffrn 1.298
_exptl_crystal_description 'block'
_diffrn_ambient_temperature 200
#These two values have been output from a single CSD field.
_refine_ls_R_factor_gt 0.0411
_refine_ls_wR_factor_gt 0.0411
_symmetry_cell_setting cubic
_symmetry_space_group_name_H-M 'P -4 3 n'
_symmetry_Int_Tables_number 218
loop_
_symmetry_equiv_pos_site_id
_symmetry_equiv_pos_as_xyz
1 x,y,z
2 -x,-y,z
3 -x,y,-z
4 x,-y,-z
5 z,x,y
6 z,-x,-y
7 -z,-x,y
8 -z,x,-y
9 y,z,x
10 -y,z,-x
11 y,-z,-x
12 -y,-z,x
13 1/2+y,1/2+x,1/2+z
14 1/2-y,1/2-x,1/2+z
15 1/2+y,1/2-x,1/2-z
16 1/2-y,1/2+x,1/2-z
17 1/2+x,1/2+z,1/2+y
18 1/2-x,1/2+z,1/2-y
19 1/2-x,1/2-z,1/2+y
20 1/2+x,1/2-z,1/2-y
21 1/2+z,1/2+y,1/2+x
22 1/2+z,1/2-y,1/2-x
23 1/2-z,1/2+y,1/2-x
24 1/2-z,1/2-y,1/2+x
_cell_length_a 17.2262(5)
_cell_length_b 17.2262(5)
_cell_length_c 17.2262(5)
_cell_angle_alpha 90
_cell_angle_beta 90
_cell_angle_gamma 90
_cell_formula_units_Z 6
loop_
_atom_type_symbol
_atom_type_radius_bond
C 0.68
H 0.23
N 0.68
Ni 1.24
O 0.68
S 1.02
loop_
_atom_site_label
_atom_site_type_symbol
_atom_site_fract_x
_atom_site_fract_y
_atom_site_fract_z
Ni1 Ni 0.50000 1.00000 1.00000
N1 N 0.6196(3) 1.00000 1.00000
C1 C 0.6872(3) 1.00000 1.00000
S1 S 0.7821(1) 1.00000 1.00000
N2 N 0.4990(3) 0.91289(14) 0.91305(13)
C2 C 0.5528(2) 0.8572(2) 0.90962(18)
H1 H 0.59080 0.85580 0.94950
C3 C 0.5567(2) 0.80204(19) 0.85249(19)
H2 H 0.59590 0.76330 0.85300
C4 C 0.5011(3) 0.80469(17) 0.79338(15)
C5 C 0.4448(2) 0.8611(2) 0.79691(19)
H3 H 0.40560 0.86370 0.75820
C6 C 0.4456(2) 0.9130(2) 0.85629(17)
H4 H 0.40610 0.95150 0.85770
O1 O 0.5008(2) 0.75719(15) 0.73116(16)
C7 C 0.5620(3) 0.7010(2) 0.7246(3)
H5 H 0.55890 0.66440 0.76800
H6 H 0.61230 0.72760 0.72570
H7 H 0.55670 0.67280 0.67550
N3 N 0.7623(3) 0.7623(3) 0.7623(3)
C8 C 0.8003(2) 0.8003(2) 0.8003(2)
C9 C 0.8486(2) 0.8486(2) 0.8486(2)
H8 H 0.81800 0.87990 0.87980
N1A N 0.3804(3) 1.00000 1.00000
C1A C 0.3128(3) 1.00000 1.00000
S1A S 0.2179(1) 1.00000 1.00000
N2A N 0.5010(3) 1.08711(14) 0.91305(13)
C2A C 0.4472(2) 1.1428(2) 0.90962(18)
H1A H 0.40920 1.14420 0.94950
C3A C 0.4433(2) 1.19796(19) 0.85249(19)
H2A H 0.40410 1.23670 0.85300
C4A C 0.4989(3) 1.19531(17) 0.79338(15)
C5A C 0.5552(2) 1.1389(2) 0.79691(19)
H3A H 0.59440 1.13630 0.75820
C6A C 0.5544(2) 1.0870(2) 0.85629(17)
H4A H 0.59390 1.04850 0.85770
O1A O 0.4992(2) 1.24281(15) 0.73116(16)
C7A C 0.4380(3) 1.2990(2) 0.7246(3)
H5A H 0.44110 1.33560 0.76800
H6A H 0.38770 1.27240 0.72570
H7A H 0.44330 1.32720 0.67550
N2B N 0.5010(3) 0.91289(14) 1.08695(13)
C2B C 0.4472(2) 0.8572(2) 1.09038(18)
H1B H 0.40920 0.85580 1.05050
C3B C 0.4433(2) 0.80204(19) 1.14751(19)
H2B H 0.40410 0.76330 1.14700
C4B C 0.4989(3) 0.80469(17) 1.20662(15)
C5B C 0.5552(2) 0.8611(2) 1.20309(19)
H3B H 0.59440 0.86370 1.24180
C6B C 0.5544(2) 0.9130(2) 1.14371(17)
H4B H 0.59390 0.95150 1.14230
O1B O 0.4992(2) 0.75719(15) 1.26884(16)
C7B C 0.4380(3) 0.7010(2) 1.2754(3)
H5B H 0.44110 0.66440 1.23200
H6B H 0.38770 0.72760 1.27430
H7B H 0.44330 0.67280 1.32450
N2C N 0.4990(3) 1.08711(14) 1.08695(13)
C2C C 0.5528(2) 1.1428(2) 1.09038(18)
H1C H 0.59080 1.14420 1.05050
C3C C 0.5567(2) 1.19796(19) 1.14751(19)
H2C H 0.59590 1.23670 1.14700
C4C C 0.5011(3) 1.19531(17) 1.20662(15)
C5C C 0.4448(2) 1.1389(2) 1.20309(19)
H3C H 0.40560 1.13630 1.24180
C6C C 0.4456(2) 1.0870(2) 1.14371(17)
H4C H 0.40610 1.04850 1.14230
O1C O 0.5008(2) 1.24281(15) 1.26884(16)
C7C C 0.5620(3) 1.2990(2) 1.2754(3)
H5C H 0.55890 1.33560 1.23200
H6C H 0.61230 1.27240 1.27430
H7C H 0.55670 1.32720 1.32450
H8D H 0.87980 0.81800 0.87990
H8H H 0.87990 0.87980 0.81800
#END

data_CSD_CIF_GUHNUS
_audit_creation_date 2001-04-02
_audit_creation_method CSD-ConQuest-V1
_database_code_CSD GUHNUS
_database_code_depnum_ccdc_archive 'CCDC 137007'
_chemical_formula_sum 'C90 H96 Sn5'
_chemical_formula_moiety
;
C72 H60 Sn5,3(C6 H12)
;
_journal_coden_Cambridge 36
_journal_volume 613
_journal_year 2000
_journal_page_first 139
_journal_name_full 'J.Organomet.Chem. '
loop_
_publ_author_name
"U.Englich"
"K.Ruhlandt-Senge"
"F.Uhlig"
_chemical_name_systematic
;
tetrakis(Triphenylstannyl)-tin cyclohexane solvate
;
_chemical_melting_point 575.15
_cell_volume   3728.923
_exptl_crystal_colour 'colorless'
_exptl_crystal_density_diffrn 1.577
_exptl_special_details
;
Melting point range 575.15-581.15K

;
_exptl_crystal_description 'cube'
_exptl_crystal_preparation 'toluene/diethyl ether'
_diffrn_ambient_temperature 150
#These two values have been output from a single CSD field.
_refine_ls_R_factor_gt 0.0476
_refine_ls_wR_factor_gt 0.0476
_symmetry_cell_setting cubic
_symmetry_space_group_name_H-M 'P -4 3 n'
_symmetry_Int_Tables_number 218
loop_
_symmetry_equiv_pos_site_id
_symmetry_equiv_pos_as_xyz
1 x,y,z
2 -x,-y,z
3 -x,y,-z
4 x,-y,-z
5 z,x,y
6 z,-x,-y
7 -z,-x,y
8 -z,x,-y
9 y,z,x
10 -y,z,-x
11 y,-z,-x
12 -y,-z,x
13 1/2+y,1/2+x,1/2+z
14 1/2-y,1/2-x,1/2+z
15 1/2+y,1/2-x,1/2-z
16 1/2-y,1/2+x,1/2-z
17 1/2+x,1/2+z,1/2+y
18 1/2-x,1/2+z,1/2-y
19 1/2-x,1/2-z,1/2+y
20 1/2+x,1/2-z,1/2-y
21 1/2+z,1/2+y,1/2+x
22 1/2+z,1/2-y,1/2-x
23 1/2-z,1/2+y,1/2-x
24 1/2-z,1/2-y,1/2+x
_cell_length_a 15.5070(1)
_cell_length_b 15.5070(1)
_cell_length_c 15.5070(1)
_cell_angle_alpha 90
_cell_angle_beta 90
_cell_angle_gamma 90
_cell_formula_units_Z 2
loop_
_atom_type_symbol
_atom_type_radius_bond
C 0.68
H 0.23
Sn 1.46
loop_
_atom_site_label
_atom_site_type_symbol
_atom_site_fract_x
_atom_site_fract_y
_atom_site_fract_z
Sn1 Sn 0.00000 0.00000 0.00000
Sn2 Sn 0.10419(2) 0.10419(2) 0.10419(2)
C1 C 0.0294(4) 0.1741(3) 0.1974(3)
C2 C -0.0380(6) 0.1381(6) 0.2397(5)
H1 H -0.0523(6) 0.0798(6) 0.2278(5)
C3 C -0.0874(6) 0.1834(6) 0.3001(6)
H2 H -0.1343(6) 0.1562(6) 0.3285(6)
C4 C -0.0672(5) 0.2664(5) 0.3174(6)
H3 H -0.1003(5) 0.2978(5) 0.3583(6)
C5 C 0.0002(6) 0.3056(4) 0.2766(5)
H4 H 0.0148(6) 0.3637(4) 0.2895(5)
C6 C 0.0475(5) 0.2594(4) 0.2157(5)
H5 H 0.0933(5) 0.2873(4) 0.1860(5)
C7 C 0.00000 0.50000 0.4126(12)
C8 C -0.0636(10) 0.4736(11) 0.4651(6)
C1D C 0.1974(4) 0.0294(3) 0.1741(3)
C2D C 0.2397(6) -0.0380(6) 0.1381(5)
H1D H 0.2278(6) -0.0523(6) 0.0798(5)
C3D C 0.3001(6) -0.0874(6) 0.1834(6)
H2D H 0.3285(6) -0.1343(6) 0.1562(6)
C4D C 0.3174(5) -0.0672(5) 0.2664(6)
H3D H 0.3583(5) -0.1003(5) 0.2978(6)
C5D C 0.2766(6) 0.0002(4) 0.3056(5)
H4D H 0.2895(6) 0.0148(4) 0.3637(5)
C6D C 0.2157(5) 0.0475(4) 0.2594(5)
H5D H 0.1860(5) 0.0933(4) 0.2873(5)
C1H C 0.1741(4) 0.1974(3) 0.0294(3)
C2H C 0.1381(6) 0.2397(6) -0.0380(5)
H1H H 0.0798(6) 0.2278(6) -0.0523(5)
C3H C 0.1834(6) 0.3001(6) -0.0874(6)
H2H H 0.1562(6) 0.3285(6) -0.1343(6)
C4H C 0.2664(5) 0.3174(5) -0.0672(6)
H3H H 0.2978(5) 0.3583(5) -0.1003(6)
C5H C 0.3056(6) 0.2766(4) 0.0002(5)
H4H H 0.3637(6) 0.2895(4) 0.0148(5)
C6H C 0.2594(5) 0.2157(4) 0.0475(5)
H5H H 0.2873(5) 0.1860(4) 0.0933(5)
Sn2A Sn -0.10419(2) -0.10419(2) 0.10419(2)
C1A C -0.0294(4) -0.1741(3) 0.1974(3)
C2A C 0.0380(6) -0.1381(6) 0.2397(5)
H1A H 0.0523(6) -0.0798(6) 0.2278(5)
C3A C 0.0874(6) -0.1834(6) 0.3001(6)
H2A H 0.1343(6) -0.1562(6) 0.3285(6)
C4A C 0.0672(5) -0.2664(5) 0.3174(6)
H3A H 0.1003(5) -0.2978(5) 0.3583(6)
C5A C -0.0002(6) -0.3056(4) 0.2766(5)
H4A H -0.0148(6) -0.3637(4) 0.2895(5)
C6A C -0.0475(5) -0.2594(4) 0.2157(5)
H5A H -0.0933(5) -0.2873(4) 0.1860(5)
C1F C -0.1974(4) -0.0294(3) 0.1741(3)
C2F C -0.2397(6) 0.0380(6) 0.1381(5)
H1F H -0.2278(6) 0.0523(6) 0.0798(5)
C3F C -0.3001(6) 0.0874(6) 0.1834(6)
H2F H -0.3285(6) 0.1343(6) 0.1562(6)
C4F C -0.3174(5) 0.0672(5) 0.2664(6)
H3F H -0.3583(5) 0.1003(5) 0.2978(6)
C5F C -0.2766(6) -0.0002(4) 0.3056(5)
H4F H -0.2895(6) -0.0148(4) 0.3637(5)
C6F C -0.2157(5) -0.0475(4) 0.2594(5)
H5F H -0.1860(5) -0.0933(4) 0.2873(5)
C1K C -0.1741(4) -0.1974(3) 0.0294(3)
C2K C -0.1381(6) -0.2397(6) -0.0380(5)
H1K H -0.0798(6) -0.2278(6) -0.0523(5)
C3K C -0.1834(6) -0.3001(6) -0.0874(6)
H2K H -0.1562(6) -0.3285(6) -0.1343(6)
C4K C -0.2664(5) -0.3174(5) -0.0672(6)
H3K H -0.2978(5) -0.3583(5) -0.1003(6)
C5K C -0.3056(6) -0.2766(4) 0.0002(5)
H4K H -0.3637(6) -0.2895(4) 0.0148(5)
C6K C -0.2594(5) -0.2157(4) 0.0475(5)
H5K H -0.2873(5) -0.1860(4) 0.0933(5)
Sn2B Sn -0.10419(2) 0.10419(2) -0.10419(2)
C1B C -0.0294(4) 0.1741(3) -0.1974(3)
C2B C 0.0380(6) 0.1381(6) -0.2397(5)
H1B H 0.0523(6) 0.0798(6) -0.2278(5)
C3B C 0.0874(6) 0.1834(6) -0.3001(6)
H2B H 0.1343(6) 0.1562(6) -0.3285(6)
C4B C 0.0672(5) 0.2664(5) -0.3174(6)
H3B H 0.1003(5) 0.2978(5) -0.3583(6)
C5B C -0.0002(6) 0.3056(4) -0.2766(5)
H4B H -0.0148(6) 0.3637(4) -0.2895(5)
C6B C -0.0475(5) 0.2594(4) -0.2157(5)
H5B H -0.0933(5) 0.2873(4) -0.1860(5)
C1G C -0.1974(4) 0.0294(3) -0.1741(3)
C2G C -0.2397(6) -0.0380(6) -0.1381(5)
H1G H -0.2278(6) -0.0523(6) -0.0798(5)
C3G C -0.3001(6) -0.0874(6) -0.1834(6)
H2G H -0.3285(6) -0.1343(6) -0.1562(6)
C4G C -0.3174(5) -0.0672(5) -0.2664(6)
H3G H -0.3583(5) -0.1003(5) -0.2978(6)
C5G C -0.2766(6) 0.0002(4) -0.3056(5)
H4G H -0.2895(6) 0.0148(4) -0.3637(5)
C6G C -0.2157(5) 0.0475(4) -0.2594(5)
H5G H -0.1860(5) 0.0933(4) -0.2873(5)
C1I C -0.1741(4) 0.1974(3) -0.0294(3)
C2I C -0.1381(6) 0.2397(6) 0.0380(5)
H1I H -0.0798(6) 0.2278(6) 0.0523(5)
C3I C -0.1834(6) 0.3001(6) 0.0874(6)
H2I H -0.1562(6) 0.3285(6) 0.1343(6)
C4I C -0.2664(5) 0.3174(5) 0.0672(6)
H3I H -0.2978(5) 0.3583(5) 0.1003(6)
C5I C -0.3056(6) 0.2766(4) -0.0002(5)
H4I H -0.3637(6) 0.2895(4) -0.0148(5)
C6I C -0.2594(5) 0.2157(4) -0.0475(5)
H5I H -0.2873(5) 0.1860(4) -0.0933(5)
Sn2C Sn 0.10419(2) -0.10419(2) -0.10419(2)
C1C C 0.0294(4) -0.1741(3) -0.1974(3)
C2C C -0.0380(6) -0.1381(6) -0.2397(5)
H1C H -0.0523(6) -0.0798(6) -0.2278(5)
C3C C -0.0874(6) -0.1834(6) -0.3001(6)
H2C H -0.1343(6) -0.1562(6) -0.3285(6)
C4C C -0.0672(5) -0.2664(5) -0.3174(6)
H3C H -0.1003(5) -0.2978(5) -0.3583(6)
C5C C 0.0002(6) -0.3056(4) -0.2766(5)
H4C H 0.0148(6) -0.3637(4) -0.2895(5)
C6C C 0.0475(5) -0.2594(4) -0.2157(5)
H5C H 0.0933(5) -0.2873(4) -0.1860(5)
C1E C 0.1974(4) -0.0294(3) -0.1741(3)
C2E C 0.2397(6) 0.0380(6) -0.1381(5)
H1E H 0.2278(6) 0.0523(6) -0.0798(5)
C3E C 0.3001(6) 0.0874(6) -0.1834(6)
H2E H 0.3285(6) 0.1343(6) -0.1562(6)
C4E C 0.3174(5) 0.0672(5) -0.2664(6)
H3E H 0.3583(5) 0.1003(5) -0.2978(6)
C5E C 0.2766(6) -0.0002(4) -0.3056(5)
H4E H 0.2895(6) -0.0148(4) -0.3637(5)
C6E C 0.2157(5) -0.0475(4) -0.2594(5)
H5E H 0.1860(5) -0.0933(4) -0.2873(5)
C1J C 0.1741(4) -0.1974(3) -0.0294(3)
C2J C 0.1381(6) -0.2397(6) 0.0380(5)
H1J H 0.0798(6) -0.2278(6) 0.0523(5)
C3J C 0.1834(6) -0.3001(6) 0.0874(6)
H2J H 0.1562(6) -0.3285(6) 0.1343(6)
C4J C 0.2664(5) -0.3174(5) 0.0672(6)
H3J H 0.2978(5) -0.3583(5) 0.1003(6)
C5J C 0.3056(6) -0.2766(4) -0.0002(5)
H4J H 0.3637(6) -0.2895(4) -0.0148(5)
C6J C 0.2594(5) -0.2157(4) -0.0475(5)
H5J H 0.2873(5) -0.1860(4) -0.0933(5)
C8C C -0.0636(10) 0.5264(11) 0.5349(6)
C7C C 0.00000 0.50000 0.5874(12)
C8B C 0.0636(10) 0.4736(11) 0.5349(6)
C8A C 0.0636(10) 0.5264(11) 0.4651(6)
#END

data_CSD_CIF_KOXKOX
_audit_creation_date 1992-11-25
_audit_creation_method CSD-ConQuest-V1
_database_code_CSD KOXKOX
_chemical_formula_sum 'C16 H36 Ga4 Se4'
_chemical_formula_moiety
;
C16 H36 Ga4 Se4
;
_journal_coden_Cambridge 579
_journal_volume 11
_journal_year 1992
_journal_page_first 1055
_journal_name_full 'Organometallics '
loop_
_publ_author_name
"M.B.Power"
"J.W.Ziller"
"A.N.Tyler"
"A.R.Barron"
_chemical_name_systematic
;
tetrakis((\m~3~-Selenido)-t-butyl-gallium)
;
_cell_volume   5514.275
_exptl_crystal_colour 'white'
_exptl_crystal_density_diffrn 1.983
_diffrn_ambient_temperature 183
#These two values have been output from a single CSD field.
_refine_ls_R_factor_gt 0.047
_refine_ls_wR_factor_gt 0.047
_symmetry_cell_setting cubic
_symmetry_space_group_name_H-M 'P -4 3 n'
_symmetry_Int_Tables_number 218
loop_
_symmetry_equiv_pos_site_id
_symmetry_equiv_pos_as_xyz
1 x,y,z
2 z,x,y
3 y,z,x
4 x,-y,-z
5 z,-x,-y
6 y,-z,-x
7 -x,y,-z
8 -z,x,-y
9 -y,z,-x
10 -x,-y,z
11 -z,-x,y
12 -y,-z,x
13 1/2+y,1/2+x,1/2+z
14 1/2+x,1/2+z,1/2+y
15 1/2+z,1/2+y,1/2+x
16 1/2-y,1/2+x,1/2-z
17 1/2-x,1/2+z,1/2-y
18 1/2-z,1/2+y,1/2-x
19 1/2+y,1/2-x,1/2-z
20 1/2+x,1/2-z,1/2-y
21 1/2+z,1/2-y,1/2-x
22 1/2-y,1/2-x,1/2+z
23 1/2-x,1/2-z,1/2+y
24 1/2-z,1/2-y,1/2+x
_cell_length_a 17.667(1)
_cell_length_b 17.667(1)
_cell_length_c 17.667(1)
_cell_angle_alpha 90
_cell_angle_beta 90
_cell_angle_gamma 90
_cell_formula_units_Z 8
loop_
_atom_type_symbol
_atom_type_radius_bond
C 0.68
H 0.23
Ga 1.22
Se 1.22
loop_
_atom_site_label
_atom_site_type_symbol
_atom_site_fract_x
_atom_site_fract_y
_atom_site_fract_z
Se1 Se -0.0757(2) -0.0757(2) -0.0757(2)
Ga1 Ga 0.0638(2) -0.0638(2) -0.0638(2)
Se2 Se -0.3257(2) -0.4256(2) -0.0760(2)
Ga2 Ga -0.1863(2) -0.4369(2) -0.0647(3)
C1 C 0.1373(42) -0.1373(42) -0.1373(42)
C2 C 0.1169(29) -0.1136(33) -0.2156(28)
C3 C -0.1235(16) -0.3778(33) -0.1283(16)
C4 C -0.1557(27) -0.2966(26) -0.1303(21)
C5 C -0.1263(43) -0.3841(48) -0.2102(31)
C6 C -0.0471(25) -0.3941(33) -0.1081(32)
H1 H 0.14460 -0.13990 -0.25430
H2 H 0.12980 -0.06090 -0.21670
H3 H 0.06360 -0.11950 -0.22430
H4 H -0.12420 -0.26600 -0.16230
H5 H -0.15270 -0.27830 -0.07920
H6 H -0.20720 -0.29390 -0.14750
H7 H -0.08610 -0.35190 -0.22740
H8 H -0.17410 -0.36070 -0.22080
H9 H -0.12340 -0.43190 -0.23580
H10 H -0.01220 -0.36550 -0.13850
H11 H -0.03400 -0.44680 -0.11030
H12 H -0.04450 -0.37690 -0.05660
Ga1A Ga -0.0638(2) 0.0638(2) -0.0638(2)
Ga1B Ga -0.0638(2) -0.0638(2) 0.0638(2)
Se1F Se 0.0757(2) -0.0757(2) 0.0757(2)
Se1I Se 0.0757(2) 0.0757(2) -0.0757(2)
C2H C 0.1136(29) -0.2156(33) -0.1169(28)
C2J C 0.2156(29) -0.1169(33) -0.1136(28)
Se1C Se -0.0757(2) 0.0757(2) 0.0757(2)
C1A C -0.1373(42) 0.1373(42) -0.1373(42)
C1B C -0.1373(42) -0.1373(42) 0.1373(42)
Ga1C Ga 0.0638(2) 0.0638(2) 0.0638(2)
H1H H 0.13990 -0.25430 -0.14460
H2H H 0.06090 -0.21670 -0.12980
H3H H 0.11950 -0.22430 -0.06360
H1J H 0.25430 -0.14460 -0.13990
H2J H 0.21670 -0.12980 -0.06090
H3J H 0.22430 -0.06360 -0.11950
C2A C -0.2156(29) 0.1169(33) -0.1136(28)
C2E C -0.1136(29) 0.2156(33) -0.1169(28)
C2I C -0.1169(29) 0.1136(33) -0.2156(28)
C2B C -0.1136(29) -0.2156(33) 0.1169(28)
C2D C -0.2156(29) -0.1169(33) 0.1136(28)
C2F C -0.1169(29) -0.1136(33) 0.2156(28)
C1C C 0.1373(42) 0.1373(42) 0.1373(42)
H1A H -0.25430 0.14460 -0.13990
H2A H -0.21670 0.12980 -0.06090
H3A H -0.22430 0.06360 -0.11950
H1E H -0.13990 0.25430 -0.14460
H2E H -0.06090 0.21670 -0.12980
H3E H -0.11950 0.22430 -0.06360
H1I H -0.14460 0.13990 -0.25430
H2I H -0.12980 0.06090 -0.21670
H3I H -0.06360 0.11950 -0.22430
H1B H -0.13990 -0.25430 0.14460
H2B H -0.06090 -0.21670 0.12980
H3B H -0.11950 -0.22430 0.06360
H1D H -0.25430 -0.14460 0.13990
H2D H -0.21670 -0.12980 0.06090
H3D H -0.22430 -0.06360 0.11950
H1F H -0.14460 -0.13990 0.25430
H2F H -0.12980 -0.06090 0.21670
H3F H -0.06360 -0.11950 0.22430
C2C C 0.1169(29) 0.1136(33) 0.2156(28)
C2G C 0.2156(29) 0.1169(33) 0.1136(28)
C2K C 0.1136(29) 0.2156(33) 0.1169(28)
H1C H 0.14460 0.13990 0.25430
H2C H 0.12980 0.06090 0.21670
H3C H 0.06360 0.11950 0.22430
H1G H 0.25430 0.14460 0.13990
H2G H 0.21670 0.12980 0.06090
H3G H 0.22430 0.06360 0.11950
H1K H 0.13990 0.25430 0.14460
H2K H 0.06090 0.21670 0.12980
H3K H 0.11950 0.22430 0.06360
Ga2P Ga -0.3137(2) -0.5647(2) -0.0631(3)
Ga2V Ga -0.3137(2) -0.4353(2) 0.0631(3)
Se2P Se -0.1743(2) -0.5760(2) -0.0744(2)
Se2V Se -0.1743(2) -0.4240(2) 0.0744(2)
Se2C Se -0.3257(2) -0.5744(2) 0.0760(2)
C3P C -0.3765(16) -0.6283(33) -0.1222(16)
C3V C -0.3765(16) -0.3717(33) 0.1222(16)
Ga2C Ga -0.1863(2) -0.5631(2) 0.0647(3)
C4P C -0.3443(27) -0.6303(26) -0.2034(21)
C5P C -0.3737(43) -0.7102(48) -0.1159(31)
C6P C -0.4529(25) -0.6081(33) -0.1059(32)
C4V C -0.3443(27) -0.3697(26) 0.2034(21)
C5V C -0.3737(43) -0.2898(48) 0.1159(31)
C6V C -0.4529(25) -0.3919(33) 0.1059(32)
C3C C -0.1235(16) -0.6222(33) 0.1283(16)
H4P H -0.37580 -0.66230 -0.23400
H5P H -0.34730 -0.57920 -0.22170
H6P H -0.29280 -0.64750 -0.20610
H7P H -0.41390 -0.72740 -0.14810
H8P H -0.32590 -0.72080 -0.13930
H9P H -0.37660 -0.73580 -0.06810
H10P H -0.48780 -0.63850 -0.13450
H11P H -0.46600 -0.61030 -0.05320
H12P H -0.45550 -0.55660 -0.12310
H4V H -0.37580 -0.33770 0.23400
H5V H -0.34730 -0.42080 0.22170
H6V H -0.29280 -0.35250 0.20610
H7V H -0.41390 -0.27260 0.14810
H8V H -0.32590 -0.27920 0.13930
H9V H -0.37660 -0.26420 0.06810
H10V H -0.48780 -0.36150 0.13450
H11V H -0.46600 -0.38970 0.05320
H12V H -0.45550 -0.44340 0.12310
C4C C -0.1557(27) -0.7034(26) 0.1303(21)
C5C C -0.1263(43) -0.6159(48) 0.2102(31)
C6C C -0.0471(25) -0.6059(33) 0.1081(32)
H4C H -0.12420 -0.73400 0.16230
H5C H -0.15270 -0.72170 0.07920
H6C H -0.20720 -0.70610 0.14750
H7C H -0.08610 -0.64810 0.22740
H8C H -0.17410 -0.63930 0.22080
H9C H -0.12340 -0.56810 0.23580
H10C H -0.01220 -0.63450 0.13850
H11C H -0.03400 -0.55320 0.11030
H12C H -0.04450 -0.62310 0.05660
#END

data_CSD_CIF_NAWWAK
_audit_creation_date 2006-01-31
_audit_creation_method CSD-ConQuest-V1
_database_code_CSD NAWWAK
_database_code_depnum_ccdc_archive 'CCDC 285213'
_chemical_formula_sum 'C45 H51 B1 F4 Ir1 O3 P5'
_chemical_formula_moiety
;
C45 H51 Ir1 O3 P5 1+,B1 F4 1-
;
_journal_coden_Cambridge 1078
_journal_year 2005
_journal_name_full 'CSD Communication(Private Communication) '
loop_
_publ_author_name
"M.J.Heeg"
_chemical_name_systematic
;
(tris(2-Diphenylphosphinoethyl)phosphine)-trimethylphosphite-iridium 
tetrafluoroborate
;
_cell_volume   9887.292
_exptl_crystal_colour 'yellow'
_exptl_crystal_density_diffrn 1.443
_exptl_special_details
;
contribution from Wayne State University, Detroit, Michigan, USA

;
_exptl_crystal_description 'cubes'
_diffrn_ambient_temperature 295
#These two values have been output from a single CSD field.
_refine_ls_R_factor_gt 0.0401
_refine_ls_wR_factor_gt 0.0401
_symmetry_cell_setting cubic
_symmetry_space_group_name_H-M 'P -4 3 n'
_symmetry_Int_Tables_number 218
loop_
_symmetry_equiv_pos_site_id
_symmetry_equiv_pos_as_xyz
1 x,y,z
2 -x,-y,z
3 -x,y,-z
4 x,-y,-z
5 z,x,y
6 z,-x,-y
7 -z,-x,y
8 -z,x,-y
9 y,z,x
10 -y,z,-x
11 y,-z,-x
12 -y,-z,x
13 1/2+y,1/2+x,1/2+z
14 1/2-y,1/2-x,1/2+z
15 1/2+y,1/2-x,1/2-z
16 1/2-y,1/2+x,1/2-z
17 1/2+x,1/2+z,1/2+y
18 1/2-x,1/2+z,1/2-y
19 1/2-x,1/2-z,1/2+y
20 1/2+x,1/2-z,1/2-y
21 1/2+z,1/2+y,1/2+x
22 1/2+z,1/2-y,1/2-x
23 1/2-z,1/2+y,1/2-x
24 1/2-z,1/2-y,1/2+x
_cell_length_a 21.4631(6)
_cell_length_b 21.4631(6)
_cell_length_c 21.4631(6)
_cell_angle_alpha 90
_cell_angle_beta 90
_cell_angle_gamma 90
_cell_formula_units_Z 8
loop_
_atom_type_symbol
_atom_type_radius_bond
C 0.68
H 0.23
B 0.83
F 0.64
Ir 1.32
O 0.68
P 1.05
loop_
_atom_site_label
_atom_site_type_symbol
_atom_site_fract_x
_atom_site_fract_y
_atom_site_fract_z
Ir1 Ir 0.829157(10) 0.829157(10) 0.829157(10)
P1 P 0.75108(9) 0.86054(9) 0.89566(9)
P2 P 0.89022(8) 0.89022(8) 0.89022(8)
P3 P 0.76795(8) 0.76795(8) 0.76795(8)
C1 C 0.7876(4) 0.9006(4) 0.9629(3)
H1 H 0.7575(4) 0.9289(4) 0.9811(3)
H2 H 0.7983(4) 0.8698(4) 0.9942(3)
C2 C 0.8443(4) 0.9360(3) 0.9458(3)
H3 H 0.8689(4) 0.9444(3) 0.9828(3)
H4 H 0.8327(4) 0.9756(3) 0.9273(3)
C3 C 0.7007(3) 0.8042(4) 0.9360(3)
C4 C 0.6553(4) 0.8230(5) 0.9776(4)
H5 H 0.6469(4) 0.8651(5) 0.9827(4)
C5 C 0.6218(4) 0.7787(6) 1.0122(4)
H6 H 0.5938(4) 0.7920(6) 1.0424(4)
C6 C 0.6297(4) 0.7175(6) 1.0023(4)
H7 H 0.6052(4) 0.6881(6) 1.0226(4)
C7 C 0.6747(4) 0.7003(5) 0.9614(5)
H8 H 0.6816(4) 0.6579(5) 0.9559(5)
C8 C 0.7105(4) 0.7404(4) 0.9280(4)
H9 H 0.7408(4) 0.7258(4) 0.9006(4)
C9 C 0.6925(3) 0.9176(4) 0.8681(4)
C10 C 0.6352(3) 0.8975(4) 0.8470(3)
H10 H 0.6259(3) 0.8551(4) 0.8472(3)
C11 C 0.5913(4) 0.9399(5) 0.8256(4)
H11 H 0.5530(4) 0.9265(5) 0.8105(4)
C12 C 0.6058(5) 1.0026(5) 0.8273(6)
H12 H 0.5761(5) 1.0319(5) 0.8156(6)
C13 C 0.6653(5) 1.0224(4) 0.8465(6)
H13 H 0.6752(5) 1.0646(4) 0.8458(6)
C14 C 0.7082(4) 0.9807(4) 0.8660(4)
H14 H 0.7478(4) 0.9939(4) 0.8780(4)
O1 O 0.7813(2) 0.7760(2) 0.6949(2)
C15 C 0.7364(5) 0.7725(6) 0.6431(5)
H15 H 0.7174(24) 0.7320(13) 0.6426(21)
H16 H 0.7577(8) 0.7794(33) 0.6044(6)
H17 H 0.7048(20) 0.8037(23) 0.6486(18)
B1 B 0.8778(4) 1.1222(4) 0.8778(4)
F1 F 0.9163(2) 1.0837(2) 0.9163(2)
F2 F 0.8232(3) 1.0927(3) 0.8725(3)
P1D P 0.89566(9) 0.75108(9) 0.86054(9)
P1H P 0.86054(9) 0.89566(9) 0.75108(9)
C1D C 0.9629(4) 0.7876(4) 0.9006(3)
C1H C 0.9006(4) 0.9629(4) 0.7876(3)
H1D H 0.9811(4) 0.7575(4) 0.9289(3)
H1H H 0.9289(4) 0.9811(4) 0.7575(3)
H2D H 0.9942(4) 0.7983(4) 0.8698(3)
H2H H 0.8698(4) 0.9942(4) 0.7983(3)
C2D C 0.9458(4) 0.8443(3) 0.9360(3)
C2H C 0.9360(4) 0.9458(3) 0.8443(3)
H3H H 0.9444(4) 0.9828(3) 0.8689(3)
H3D H 0.9828(4) 0.8689(3) 0.9444(3)
H4H H 0.9756(4) 0.9273(3) 0.8327(3)
H4D H 0.9273(4) 0.8327(3) 0.9756(3)
C3H C 0.8042(3) 0.9360(4) 0.7007(3)
C3D C 0.9360(3) 0.7007(4) 0.8042(3)
C4H C 0.8230(4) 0.9776(5) 0.6553(4)
C4D C 0.9776(4) 0.6553(5) 0.8230(4)
H5H H 0.8651(4) 0.9827(5) 0.6469(4)
H5D H 0.9827(4) 0.6469(5) 0.8651(4)
C5H C 0.7787(4) 1.0122(6) 0.6218(4)
C5D C 1.0122(4) 0.6218(6) 0.7787(4)
H6H H 0.7920(4) 1.0424(6) 0.5938(4)
H6D H 1.0424(4) 0.5938(6) 0.7920(4)
C6H C 0.7175(4) 1.0023(6) 0.6297(4)
C6D C 1.0023(4) 0.6297(6) 0.7175(4)
H7H H 0.6881(4) 1.0226(6) 0.6052(4)
H7D H 1.0226(4) 0.6052(6) 0.6881(4)
C7H C 0.7003(4) 0.9614(5) 0.6747(5)
C7D C 0.9614(4) 0.6747(5) 0.7003(5)
H8H H 0.6579(4) 0.9559(5) 0.6816(5)
H8D H 0.9559(4) 0.6816(5) 0.6579(5)
C8H C 0.7404(4) 0.9280(4) 0.7105(4)
C8D C 0.9280(4) 0.7105(4) 0.7404(4)
H9H H 0.7258(4) 0.9006(4) 0.7408(4)
H9D H 0.9006(4) 0.7408(4) 0.7258(4)
C9H C 0.9176(3) 0.8681(4) 0.6925(4)
C9D C 0.8681(3) 0.6925(4) 0.9176(4)
C10H C 0.8975(3) 0.8470(4) 0.6352(3)
C10D C 0.8470(3) 0.6352(4) 0.8975(3)
H10H H 0.8551(3) 0.8472(4) 0.6259(3)
H10D H 0.8472(3) 0.6259(4) 0.8551(3)
C11H C 0.9399(4) 0.8256(5) 0.5913(4)
C11D C 0.8256(4) 0.5913(5) 0.9399(4)
H11H H 0.9265(4) 0.8105(5) 0.5530(4)
H11D H 0.8105(4) 0.5530(5) 0.9265(4)
C12H C 1.0026(5) 0.8273(5) 0.6058(6)
C12D C 0.8273(5) 0.6058(5) 1.0026(6)
H12H H 1.0319(5) 0.8156(5) 0.5761(6)
H12D H 0.8156(5) 0.5761(5) 1.0319(6)
C13H C 1.0224(5) 0.8465(4) 0.6653(6)
C13D C 0.8465(5) 0.6653(4) 1.0224(6)
H13H H 1.0646(5) 0.8458(4) 0.6752(6)
H13D H 0.8458(5) 0.6752(4) 1.0646(6)
C14H C 0.9807(4) 0.8660(4) 0.7082(4)
C14D C 0.8660(4) 0.7082(4) 0.9807(4)
H14H H 0.9939(4) 0.8780(4) 0.7478(4)
H14D H 0.8780(4) 0.7478(4) 0.9939(4)
O1D O 0.6949(2) 0.7813(2) 0.7760(2)
O1H O 0.7760(2) 0.6949(2) 0.7813(2)
C15D C 0.6431(5) 0.7364(6) 0.7725(5)
C15H C 0.7725(5) 0.6431(6) 0.7364(5)
H15D H 0.6426(24) 0.7174(13) 0.7320(21)
H15H H 0.7320(24) 0.6426(13) 0.7174(21)
H16D H 0.6044(8) 0.7577(33) 0.7794(6)
H16H H 0.7794(8) 0.6044(33) 0.7577(6)
H17D H 0.6486(20) 0.7048(23) 0.8037(18)
H17H H 0.8037(20) 0.6486(23) 0.7048(18)
F2E F 0.8725(3) 1.1768(3) 0.9073(3)
F2K F 0.9073(3) 1.1275(3) 0.8232(3)
#END

data_CSD_CIF_PUSSUR
_audit_creation_date 1999-01-19
_audit_creation_method CSD-ConQuest-V1
_database_code_CSD PUSSUR
_database_code_depnum_ccdc_archive 'CCDC 1239899'
_database_code_depnum_ccdc_journal 186/979
_chemical_formula_sum 'C16 H48 Ge4 N4 Se10'
_chemical_formula_moiety
;
4(C4 H12 N1 1+),Ge4 Se10 4-
;
_journal_coden_Cambridge 186
_journal_year 1998
_journal_page_first 2023
_journal_name_full 'J.Chem.Soc.,Dalton Trans. '
loop_
_publ_author_name
"H.Ahari"
"A.Garcia"
"S.Kirkby"
"G.A.Ozin"
"David Young"
"A.J.Lough"
_chemical_name_systematic
;
tetrakis(Tetramethylammonium) 
hexakis(\m~2~-selenido)-tetraselenido-tetra-germanium
;
_cell_volume   8033.647
_exptl_crystal_colour 'yellow'
_exptl_crystal_density_diffrn 2.276
_exptl_crystal_description 'cube'
_diffrn_ambient_temperature 168
#These two values have been output from a single CSD field.
_refine_ls_R_factor_gt 0.0301
_refine_ls_wR_factor_gt 0.0301
_symmetry_cell_setting cubic
_symmetry_space_group_name_H-M 'P -4 3 n'
_symmetry_Int_Tables_number 218
loop_
_symmetry_equiv_pos_site_id
_symmetry_equiv_pos_as_xyz
1 x,y,z
2 1/2+y,1/2-x,1/2-z
3 x,-y,-z
4 z,x,y
5 -x,-y,z
6 1/2-y,1/2-x,1/2+z
7 1/2+x,1/2-z,1/2-y
8 1/2-y,1/2+x,1/2-z
9 -x,y,-z
10 -z,-x,y
11 1/2+y,1/2+x,1/2+z
12 1/2-x,1/2+z,1/2-y
13 z,-x,-y
14 1/2+x,1/2+z,1/2+y
15 -z,x,-y
16 1/2-x,1/2-z,1/2+y
17 y,z,x
18 1/2+z,1/2-y,1/2-x
19 1/2-z,1/2-y,1/2+x
20 y,-z,-x
21 1/2+z,1/2+y,1/2+x
22 -y,z,-x
23 -y,-z,x
24 1/2-z,1/2+y,1/2-x
_cell_length_a 20.028(2)
_cell_length_b 20.028(2)
_cell_length_c 20.028(2)
_cell_angle_alpha 90
_cell_angle_beta 90
_cell_angle_gamma 90
_cell_formula_units_Z 8
loop_
_atom_type_symbol
_atom_type_radius_bond
C 0.68
H 0.23
Ge 1.17
N 0.68
Se 1.22
loop_
_atom_site_label
_atom_site_type_symbol
_atom_site_fract_x
_atom_site_fract_y
_atom_site_fract_z
Ge1 Ge 0.0675(1) 0.0675(1) 0.0675(1)
Se1 Se 0.1324(2) 0.1324(2) 0.1324(2)
Se2 Se 0.00000 0.00000 0.1381(2)
Ge2 Ge 0.0708(1) 0.5634(1) 0.1823(1)
Se3 Se 0.00000 0.50000 0.1113(1)
Se4 Se 0.1368(1) 0.4926(1) 0.2508(1)
Se5 Se 0.1399(1) 0.6269(2) 0.1202(1)
N1 N 0.3372(9) 0.3372(9) 0.3372(9)
C1 C 0.2960(12) 0.2960(12) 0.2960(12)
C2 C 0.3197(12) 0.3203(11) 0.4096(10)
H1 H 0.3132(39) 0.2579(62) 0.2925(23)
H2 H 0.3492(42) 0.3452(47) 0.4397(10)
H3 H 0.3257(56) 0.2723(15) 0.4171(17)
H4 H 0.2732(22) 0.3326(55) 0.4185(21)
N2 N 0.1508(8) 0.3392(7) 0.0813(8)
C3 C 0.1664(11) 0.4123(10) 0.0712(10)
C4 C 0.2007(9) 0.2968(10) 0.0423(8)
C5 C 0.1611(11) 0.3257(10) 0.1568(10)
C6 C 0.0826(9) 0.3223(10) 0.0624(9)
H5 H 0.1571(59) 0.4247(17) 0.0248(19)
H6 H 0.2136(19) 0.4204(16) 0.0811(61)
H7 H 0.1386(47) 0.4392(11) 0.1011(45)
H8 H 0.1966(40) 0.3066(44) -0.0055(10)
H9 H 0.1915(37) 0.2494(10) 0.0501(46)
H10 H 0.2462(10) 0.3073(42) 0.0571(42)
H11 H 0.1346(50) 0.3576(40) 0.1828(10)
H12 H 0.2084(15) 0.3308(62) 0.1680(15)
H13 H 0.1467(57) 0.2801(22) 0.1673(16)
H14 H 0.0751(21) 0.3347(57) 0.0157(21)
H15 H 0.0512(9) 0.3465(48) 0.0910(43)
H16 H 0.0757(21) 0.2741(14) 0.0677(58)
Ge1D Ge -0.0675(1) -0.0675(1) 0.0675(1)
Se1D Se -0.1324(2) -0.1324(2) 0.1324(2)
Se2I Se -0.13810 0.00000 0.0000(2)
Ge1N Ge -0.0675(1) 0.0675(1) -0.0675(1)
Se1N Se -0.1324(2) 0.1324(2) -0.1324(2)
Se2U Se 0.00000 0.13810 0.0000(2)
Se2C Se 0.13810 0.00000 0.0000(2)
Ge1L Ge 0.0675(1) -0.0675(1) -0.0675(1)
Se1L Se 0.1324(2) -0.1324(2) -0.1324(2)
Se2S Se 0.00000 -0.13810 0.0000(2)
Se2B Se 0.00000 0.00000 -0.1381(2)
Ge2D Ge -0.0708(1) 0.4366(1) 0.1823(1)
Se4D Se -0.1368(1) 0.5074(1) 0.2508(1)
Ge2G Ge -0.0634(1) 0.5708(1) 0.3177(1)
Se3G Se 0.00000 0.50000 0.3887(1)
Ge2A Ge 0.0634(1) 0.4292(1) 0.3177(1)
Se4A Se -0.0074(1) 0.3632(1) 0.2492(1)
Se5D Se -0.1399(1) 0.3731(2) 0.1202(1)
Se4G Se 0.0074(1) 0.6368(1) 0.2492(1)
Se5G Se -0.1269(1) 0.6399(2) 0.3798(1)
Se5A Se 0.1269(1) 0.3601(2) 0.3798(1)
H1C H 0.2925(39) 0.3132(62) 0.2579(23)
H1P H 0.2579(39) 0.2925(62) 0.3132(23)
C2C C 0.4096(12) 0.3197(11) 0.3203(10)
H2C H 0.4397(42) 0.3492(47) 0.3452(10)
H3C H 0.4171(56) 0.3257(15) 0.2723(17)
H4C H 0.4185(22) 0.2732(55) 0.3326(21)
C2P C 0.3203(12) 0.4096(11) 0.3197(10)
H2P H 0.3452(42) 0.4397(47) 0.3492(10)
H3P H 0.2723(56) 0.4171(15) 0.3257(17)
H4P H 0.3326(22) 0.4185(55) 0.2732(21)
#END

data_CSD_CIF_QOPZOL
_audit_creation_date 2009-06-25
_audit_creation_method CSD-ConQuest-V1
_database_code_CSD QOPZOL
_database_code_depnum_ccdc_archive 'CCDC 705355'
_chemical_formula_sum 'C42 H33 Cu4 I1 N24 S6'
_chemical_formula_moiety
;
C42 H33 Cu4 I1 N24 S6
;
_journal_coden_Cambridge 9
_journal_volume 48
_journal_year 2009
_journal_page_first 420
_journal_name_full 'Inorg.Chem. '
loop_
_publ_author_name
"Wei Wei"
"Mingyan Wu"
"Qiang Gao"
"Qingfu Zhang"
"Yougui Huang"
"Feilong Jiang"
"Maochun Hong"
_chemical_name_systematic
;
tris(\m~3~-1-phenyl-1H-tetrazole-5-thiolato-N,S,S)-(\m~3~-iodo)-tris(1-phenyl-
1,4-dihydro-5H-tetrazole-5-thione)-tetra-copper(i)
;
_cell_volume  11336.946
_exptl_crystal_colour 'colorless'
_exptl_crystal_density_diffrn 1.696
_exptl_special_details
;
photoluminescent

;
_exptl_crystal_description 'prism'
_diffrn_ambient_temperature 293
#These two values have been output from a single CSD field.
_refine_ls_R_factor_gt 0.0374
_refine_ls_wR_factor_gt 0.0374
_symmetry_cell_setting cubic
_symmetry_space_group_name_H-M 'P -4 3 n'
_symmetry_Int_Tables_number 218
loop_
_symmetry_equiv_pos_site_id
_symmetry_equiv_pos_as_xyz
1 x,y,z
2 1/2+y,1/2-x,1/2-z
3 -x,-y,z
4 1/2-y,1/2+x,1/2-z
5 1/2-x,1/2+z,1/2-y
6 x,-y,-z
7 1/2-x,1/2-z,1/2+y
8 1/2-z,1/2-y,1/2+x
9 -x,y,-z
10 1/2+z,1/2-y,1/2-x
11 z,x,y
12 y,z,x
13 -y,-z,x
14 z,-x,-y
15 -y,z,-x
16 -z,-x,y
17 -z,x,-y
18 y,-z,-x
19 1/2-y,1/2-x,1/2+z
20 1/2+y,1/2+x,1/2+z
21 1/2+x,1/2-z,1/2-y
22 1/2+x,1/2+z,1/2+y
23 1/2-z,1/2+y,1/2-x
24 1/2+z,1/2+y,1/2+x
_cell_length_a 22.4646(3)
_cell_length_b 22.4646(3)
_cell_length_c 22.4646(3)
_cell_angle_alpha 90
_cell_angle_beta 90
_cell_angle_gamma 90
_cell_formula_units_Z 8
loop_
_atom_type_symbol
_atom_type_radius_bond
C 0.68
H 0.23
Cu 1.21
I 1.40
N 0.68
S 1.02
loop_
_atom_site_label
_atom_site_type_symbol
_atom_site_fract_x
_atom_site_fract_y
_atom_site_fract_z
I1 I 0.192257(13) 0.807743(13) 0.807743(13)
Cu1 Cu 0.11211(3) 0.88789(3) 0.88789(3)
Cu2 Cu 0.21790(2) 0.92731(3) 0.83264(2)
S1 S 0.26922(6) 0.95761(6) 0.75123(5)
S2 S 0.12345(5) 0.97602(4) 0.83817(4)
N1 N 0.35952(15) 0.99859(19) 0.82215(16)
H1 H 0.34940 0.97930 0.85360
N2 N 0.40690(19) 1.0353(2) 0.8192(2)
N3 N 0.40882(19) 1.0570(2) 0.7668(2)
N4 N 0.36222(16) 1.03348(17) 0.73536(17)
N5 N 0.25395(17) 0.92766(15) 0.91409(16)
N6 N 0.31097(19) 0.94436(16) 0.92560(17)
N7 N 0.32512(17) 0.93306(15) 0.98001(15)
N8 N 0.27621(14) 0.90838(14) 1.00504(15)
C1 C 0.33000(19) 0.99574(18) 0.77035(17)
C2 C 0.3486(2) 1.0521(2) 0.6771(2)
C3 C 0.3402(5) 1.0138(4) 0.6349(3)
H2 H 0.34580 0.97350 0.64260
C4 C 0.3229(6) 1.0316(6) 0.5782(4)
H3 H 0.31920 1.00440 0.54720
C5 C 0.3115(5) 1.0914(6) 0.5699(5)
H4 H 0.29580 1.10420 0.53380
C6 C 0.3225(3) 1.1315(5) 0.6124(5)
H5 H 0.31760 1.17180 0.60450
C7 C 0.3410(3) 1.1134(3) 0.6679(3)
H6 H 0.34830 1.14080 0.69810
C8 C 0.09505(18) 0.96420(16) 0.76822(18)
C9 C 0.27702(19) 0.89055(17) 1.06641(18)
C10 C 0.3187(3) 0.8495(2) 1.0848(2)
H7 H 0.34560 0.83320 1.05790
C11 C 0.3199(3) 0.8330(2) 1.1439(3)
H8 H 0.34910 0.80700 1.15730
C12 C 0.2784(3) 0.8547(2) 1.1830(2)
H9 H 0.27800 0.84130 1.22210
C13 C 0.2376(2) 0.8958(2) 1.1648(2)
H10 H 0.21060 0.91150 1.19190
C14 C 0.2364(2) 0.91430(19) 1.1048(2)
H11 H 0.20860 0.94210 1.09170
Cu2N Cu 0.07269(2) 0.83264(3) 0.78210(2)
Cu2O Cu 0.16736(2) 0.78210(3) 0.92731(2)
S1O S 0.24877(6) 0.73078(6) 0.95761(5)
S1N S 0.04239(6) 0.75123(6) 0.73078(5)
S2N S 0.02398(5) 0.83817(4) 0.87655(4)
S2O S 0.16183(5) 0.87655(4) 0.97602(4)
N1O N 0.17785(15) 0.64048(19) 0.99859(16)
N1N N 0.00141(15) 0.82215(19) 0.64048(16)
H1O H 0.14640 0.65060 0.97930
H1N H 0.02070 0.85360 0.65060
N2O N 0.18080(19) 0.5931(2) 1.0353(2)
N2N N -0.03530(19) 0.8192(2) 0.5931(2)
N3O N 0.23320(19) 0.59118(20) 1.0570(2)
N3N N -0.05700(19) 0.7668(2) 0.59118(20)
N4O N 0.26464(16) 0.63778(17) 1.03348(17)
N4N N -0.03348(16) 0.73536(17) 0.63778(17)
N5O N 0.08591(17) 0.74605(15) 0.92766(16)
N5N N 0.07234(17) 0.91409(15) 0.74605(16)
N6O N 0.07440(19) 0.68903(16) 0.94436(17)
N6N N 0.05564(19) 0.92560(16) 0.68903(17)
N7O N 0.01999(17) 0.67488(15) 0.93306(15)
N7N N 0.06694(17) 0.98001(15) 0.67488(15)
N8O N -0.00504(14) 0.72379(14) 0.90838(15)
N8N N 0.09162(14) 1.00504(14) 0.72379(15)
C1O C 0.22965(19) 0.67000(18) 0.99574(17)
C1N C 0.00426(19) 0.77035(18) 0.67000(17)
C2O C 0.3229(2) 0.6514(2) 1.0521(2)
C2N C -0.0521(2) 0.6771(2) 0.6514(2)
C3O C 0.3651(5) 0.6598(4) 1.0138(3)
C3N C -0.0138(5) 0.6349(4) 0.6598(3)
H2O H 0.35740 0.65420 0.97350
H2N H 0.02650 0.64260 0.65420
C4O C 0.4218(6) 0.6771(6) 1.0316(4)
C4N C -0.0316(6) 0.5782(6) 0.6771(4)
H3O H 0.45280 0.68080 1.00440
H3N H -0.00440 0.54720 0.68080
C5O C 0.4301(5) 0.6885(6) 1.0914(5)
C5N C -0.0914(5) 0.5699(6) 0.6885(5)
H4O H 0.46620 0.70420 1.10420
H4N H -0.10420 0.53380 0.70420
C6O C 0.3876(3) 0.6775(5) 1.1315(5)
C6N C -0.1315(3) 0.6124(5) 0.6775(5)
H5O H 0.39550 0.68240 1.17180
H5N H -0.17180 0.60450 0.68240
C7O C 0.3321(3) 0.6590(3) 1.1134(3)
C7N C -0.1134(3) 0.6679(3) 0.6590(3)
H6O H 0.30190 0.65170 1.14080
H6N H -0.14080 0.69810 0.65170
C8O C 0.23178(18) 0.90495(16) 0.96420(18)
C8N C 0.03580(18) 0.76822(16) 0.90495(18)
C9O C -0.06641(19) 0.72298(17) 0.89055(18)
C9N C 0.10945(19) 1.06641(17) 0.72298(18)
C10O C -0.0848(3) 0.6813(2) 0.8495(2)
C10N C 0.1505(3) 1.0848(2) 0.6813(2)
H7O H -0.05790 0.65440 0.83320
H7N H 0.16680 1.05790 0.65440
C11O C -0.1439(3) 0.6801(2) 0.8330(3)
C11N C 0.1670(3) 1.1439(2) 0.6801(3)
H8O H -0.15730 0.65090 0.80700
H8N H 0.19300 1.15730 0.65090
C12O C -0.1830(3) 0.7216(2) 0.8547(2)
C12N C 0.1453(3) 1.1830(2) 0.7216(2)
H9O H -0.22210 0.72200 0.84130
H9N H 0.15870 1.22210 0.72200
C13O C -0.1648(2) 0.7624(2) 0.8958(2)
C13N C 0.1042(2) 1.1648(2) 0.7624(2)
H10O H -0.19190 0.78940 0.91150
H10N H 0.08850 1.19190 0.78940
C14O C -0.1048(2) 0.76360(19) 0.9143(2)
C14N C 0.0857(2) 1.10480(19) 0.7636(2)
H11O H -0.09170 0.79140 0.94210
H11N H 0.05790 1.09170 0.79140
#END

data_CSD_CIF_QUKVOI
_audit_creation_date 2010-07-07
_audit_creation_method CSD-ConQuest-V1
_database_code_CSD QUKVOI
_database_code_depnum_ccdc_archive 'CCDC 720603'
_chemical_formula_sum 'C108 H117 Ag6 Bi3 Cl3 P3 S12'
_chemical_formula_moiety
;
C108 H117 Ag6 Bi3 Cl3 P3 S12
;
_journal_coden_Cambridge 29
_journal_volume 635
_journal_year 2009
_journal_page_first 1997
_journal_name_full 'Z.Anorg.Allg.Chem. '
loop_
_publ_author_name
"H.Sommer"
"A.Eichhofer"
"D.Fenske"
_chemical_name_systematic
;
(\m~6~-Chloro)-tris(\m~4~-phenylsulfido)-bis(\m~3~-chloro)-tris(\m~2~-phenylsu
lfido)-tris(di-isopropyl(phenyl)phosphine)-hexakis(phenylthiolato)-tri-bismuth
-hexa-silver
;
_cell_volume  31611.448
_exptl_crystal_colour 'yellow'
_exptl_crystal_density_diffrn 1.375
_exptl_special_details
;
Study temperature given as 293 K and 100 K in the CIF

;
_exptl_crystal_description 'block'
_diffrn_ambient_temperature 100
#These two values have been output from a single CSD field.
_refine_ls_R_factor_gt 0.0416
_refine_ls_wR_factor_gt 0.0416
_symmetry_cell_setting cubic
_symmetry_space_group_name_H-M 'P -4 3 n'
_symmetry_Int_Tables_number 218
loop_
_symmetry_equiv_pos_site_id
_symmetry_equiv_pos_as_xyz
1 x,y,z
2 -x,-y,z
3 -x,y,-z
4 x,-y,-z
5 z,x,y
6 z,-x,-y
7 -z,-x,y
8 -z,x,-y
9 y,z,x
10 -y,z,-x
11 y,-z,-x
12 -y,-z,x
13 1/2+y,1/2+x,1/2+z
14 1/2-y,1/2-x,1/2+z
15 1/2+y,1/2-x,1/2-z
16 1/2-y,1/2+x,1/2-z
17 1/2+x,1/2+z,1/2+y
18 1/2-x,1/2+z,1/2-y
19 1/2-x,1/2-z,1/2+y
20 1/2+x,1/2-z,1/2-y
21 1/2+z,1/2+y,1/2+x
22 1/2+z,1/2-y,1/2-x
23 1/2-z,1/2+y,1/2-x
24 1/2-z,1/2-y,1/2+x
_cell_length_a 31.619(4)
_cell_length_b 31.619(4)
_cell_length_c 31.619(4)
_cell_angle_alpha 90
_cell_angle_beta 90
_cell_angle_gamma 90
_cell_formula_units_Z 8
loop_
_atom_type_symbol
_atom_type_radius_bond
C 0.68
H 0.23
Ag 1.45
Bi 1.48
Cl 1.34
P 1.05
S 1.02
loop_
_atom_site_label
_atom_site_type_symbol
_atom_site_fract_x
_atom_site_fract_y
_atom_site_fract_z
P1 P 0.47040(7) 0.28643(8) 0.64419(7)
Bi1 Bi 0.289142(10) 0.174798(10) 0.775492(10)
Ag1 Ag 0.35105(2) 0.25259(2) 0.71471(2)
Ag2 Ag 0.401517(19) 0.31356(2) 0.65933(2)
S1 S 0.26913(7) 0.16635(7) 0.69831(7)
S2 S 0.29263(10) 0.09460(7) 0.78612(9)
S3 S 0.36930(7) 0.18715(7) 0.75169(8)
S4 S 0.36290(6) 0.33284(6) 0.72954(7)
Cl1 Cl 0.19647(6) 0.19647(6) 0.80353(6)
Cl2 Cl 0.26356(5) 0.26356(5) 0.73644(5)
Cl3 Cl 0.38478(6) 0.38478(6) 0.61522(6)
C1 C 0.2757(3) 0.1112(2) 0.6892(3)
C2 C 0.3159(3) 0.0960(3) 0.6798(4)
H1 H 0.33910 0.11400 0.68140
C3 C 0.3214(3) 0.0540(4) 0.6680(4)
H2 H 0.34830 0.04390 0.66170
C4 C 0.2867(4) 0.0272(3) 0.6656(4)
H3 H 0.29030 -0.00090 0.65770
C5 C 0.2465(4) 0.0423(3) 0.6749(4)
H4 H 0.22320 0.02430 0.67330
C6 C 0.2410(2) 0.0843(3) 0.6867(4)
H5 H 0.21410 0.09440 0.69300
C7 C 0.3061(4) 0.0973(3) 0.8408(4)
C8 C 0.3424(5) 0.0748(4) 0.8545(4)
H6 H 0.35890 0.06000 0.83520
C9 C 0.3523(5) 0.0753(5) 0.8952(6)
H7 H 0.37480 0.05900 0.90470
C10 C 0.3299(6) 0.0993(6) 0.9236(5)
H8 H 0.33850 0.10000 0.95170
C11 C 0.2946(5) 0.1226(4) 0.9114(4)
H9 H 0.27950 0.13880 0.93080
C12 C 0.2828(5) 0.1206(3) 0.8692(3)
H10 H 0.25900 0.13510 0.86010
C13 C 0.3908(3) 0.2010(4) 0.8014(4)
C14 C 0.3951(5) 0.1680(6) 0.8319(6)
H11 H 0.38920 0.14000 0.82520
C15 C 0.4090(6) 0.1804(7) 0.8736(6)
H12 H 0.40900 0.16020 0.89500
C16 C 0.4214(4) 0.2182(8) 0.8822(4)
H13 H 0.43370 0.22330 0.90840
C17 C 0.4170(4) 0.2527(6) 0.8530(4)
H14 H 0.42360 0.28030 0.86060
C18 C 0.4019(3) 0.2423(4) 0.8117(4)
H15 H 0.39940 0.26340 0.79140
C19 C 0.3988(3) 0.3515(3) 0.7676(3)
C20 C 0.3872(4) 0.3548(4) 0.8099(3)
H16 H 0.36020 0.34660 0.81810
C21 C 0.4137(5) 0.3691(6) 0.8386(4)
H17 H 0.40530 0.37010 0.86670
C22 C 0.4545(5) 0.3830(6) 0.8275(5)
H18 H 0.47290 0.39370 0.84780
C23 C 0.4663(3) 0.3804(4) 0.7860(4)
H19 H 0.49280 0.39020 0.77780
C24 C 0.4396(3) 0.3634(3) 0.7562(3)
H20 H 0.44870 0.35990 0.72850
C25 C 0.5113(3) 0.3257(4) 0.6532(3)
C26 C 0.5022(4) 0.3669(4) 0.6460(4)
H21 H 0.47550 0.37480 0.63650
C27 C 0.5328(4) 0.3971(5) 0.6528(7)
H22 H 0.52640 0.42500 0.64600
C28 C 0.5710(4) 0.3888(6) 0.6686(6)
H23 H 0.59010 0.41040 0.67460
C29 C 0.5804(4) 0.3509(8) 0.6753(4)
H24 H 0.60780 0.34540 0.68450
C30 C 0.5524(3) 0.3143(5) 0.6698(3)
H25 H 0.56020 0.28670 0.67630
C31 C 0.4856(3) 0.2385(4) 0.6741(4)
H26 H 0.51510 0.23160 0.66750
C32 C 0.4823(4) 0.2498(6) 0.7236(4)
H27 H 0.49010 0.22560 0.74010
H28 H 0.45380 0.25790 0.73030
H29 H 0.50110 0.27280 0.73010
C33 C 0.4580(4) 0.2010(4) 0.6624(5)
H30 H 0.46660 0.17670 0.67850
H31 H 0.46090 0.19510 0.63280
H32 H 0.42900 0.20750 0.66860
C34 C 0.4762(3) 0.2706(3) 0.5879(3)
H33 H 0.45490 0.24880 0.58230
C35 C 0.4669(4) 0.3075(4) 0.5590(3)
H34 H 0.46990 0.29870 0.53010
H35 H 0.48630 0.33010 0.56480
H36 H 0.43850 0.31710 0.56380
C36 C 0.5200(3) 0.2510(4) 0.5777(4)
H37 H 0.52100 0.24340 0.54830
H38 H 0.52430 0.22630 0.59470
H39 H 0.54180 0.27130 0.58360
P1J P 0.28643(7) 0.35581(8) 0.52960(7)
P1G P 0.35581(7) 0.47040(8) 0.71357(7)
Bi1J Bi 0.174798(10) 0.224508(10) 0.710858(10)
Bi1G Bi 0.224508(10) 0.289142(10) 0.825202(10)
Ag1J Ag 0.25259(2) 0.28529(2) 0.64895(2)
Ag1G Ag 0.28529(2) 0.35105(2) 0.74741(2)
Ag2J Ag 0.313560(19) 0.34067(2) 0.598483(20)
Ag2G Ag 0.340670(19) 0.401517(20) 0.68644(2)
S1J S 0.16635(7) 0.30169(7) 0.73087(7)
S1G S 0.30169(7) 0.26913(7) 0.83365(7)
S2J S 0.0946(1) 0.21388(7) 0.70737(9)
S2G S 0.21388(10) 0.29263(7) 0.90540(9)
S3J S 0.18715(7) 0.24831(7) 0.63070(8)
S3G S 0.24831(7) 0.36930(7) 0.81285(8)
S4J S 0.33284(6) 0.27046(6) 0.63710(7)
S4G S 0.27046(6) 0.36290(6) 0.66716(7)
C1J C 0.1112(3) 0.3108(2) 0.7243(3)
C1G C 0.3108(3) 0.2757(2) 0.8888(3)
C2J C 0.0960(3) 0.3202(3) 0.6841(4)
C2G C 0.3202(3) 0.3159(3) 0.9040(4)
H1J H 0.11400 0.31860 0.66090
H1G H 0.31860 0.33910 0.88600
C3J C 0.0540(3) 0.3320(4) 0.6786(4)
C3G C 0.3320(3) 0.3214(4) 0.9460(4)
H2J H 0.04390 0.33830 0.65170
H2G H 0.33830 0.34830 0.95610
C4J C 0.0272(4) 0.3344(3) 0.7133(4)
C4G C 0.3344(4) 0.2867(3) 0.9728(4)
H3J H -0.00090 0.34230 0.70970
H3G H 0.34230 0.29030 1.00090
C5J C 0.0423(4) 0.3251(3) 0.7535(4)
C5G C 0.3251(4) 0.2465(3) 0.9577(4)
H4J H 0.02430 0.32670 0.77680
H4G H 0.32670 0.22320 0.97570
C6J C 0.0843(2) 0.3133(3) 0.7590(4)
C6G C 0.3133(2) 0.2410(3) 0.9157(4)
H5J H 0.09440 0.30700 0.78590
H5G H 0.30700 0.21410 0.90560
C7J C 0.0973(4) 0.1592(3) 0.6939(4)
C7G C 0.1592(4) 0.3061(3) 0.9027(4)
C8J C 0.0748(5) 0.1455(4) 0.6576(4)
C8G C 0.1455(5) 0.3424(4) 0.9252(4)
H6J H 0.06000 0.16480 0.64110
H6G H 0.16480 0.35890 0.94000
C9J C 0.0753(5) 0.1048(5) 0.6477(6)
C9G C 0.1048(5) 0.3523(5) 0.9247(6)
H7J H 0.05900 0.09530 0.62520
H7G H 0.09530 0.37480 0.94100
C10J C 0.0993(6) 0.0764(6) 0.6701(5)
C10G C 0.0764(6) 0.3299(6) 0.9007(5)
H8J H 0.10000 0.04830 0.66150
H8G H 0.04830 0.33850 0.90000
C11J C 0.1226(5) 0.0886(4) 0.7054(4)
C11G C 0.0886(5) 0.2946(4) 0.8774(4)
H9J H 0.13880 0.06920 0.72050
H9G H 0.06920 0.27950 0.86120
C12J C 0.1206(5) 0.1308(3) 0.7172(3)
C12G C 0.1308(5) 0.2828(3) 0.8794(3)
H10J H 0.13510 0.13990 0.74100
H10G H 0.13990 0.25900 0.86490
C13G C 0.1986(3) 0.3908(4) 0.7990(4)
C13J C 0.2010(3) 0.1986(4) 0.6092(4)
C14G C 0.1681(5) 0.3951(6) 0.8320(6)
C14J C 0.1680(5) 0.1681(6) 0.6049(6)
H11G H 0.17480 0.38920 0.86000
H11J H 0.14000 0.17480 0.61080
C15G C 0.1264(6) 0.4090(7) 0.8196(6)
C15J C 0.1804(6) 0.1264(7) 0.5910(6)
H12G H 0.10500 0.40900 0.83980
H12J H 0.16020 0.10500 0.59100
C16G C 0.1178(4) 0.4214(8) 0.7818(4)
C16J C 0.2182(4) 0.1178(8) 0.5786(4)
H13G H 0.09160 0.43370 0.77670
H13J H 0.22330 0.09160 0.56630
C17G C 0.1470(4) 0.4170(6) 0.7473(4)
C17J C 0.2527(4) 0.1470(6) 0.5830(4)
H14G H 0.13940 0.42360 0.71970
H14J H 0.28030 0.13940 0.57640
C18G C 0.1883(3) 0.4019(4) 0.7577(4)
C18J C 0.2423(3) 0.1883(4) 0.5981(4)
H15G H 0.20860 0.39940 0.73660
H15J H 0.26340 0.20860 0.60060
C19J C 0.3515(3) 0.2324(3) 0.6012(3)
C19G C 0.2324(3) 0.3988(3) 0.6485(3)
C20J C 0.3548(4) 0.1901(4) 0.6128(3)
C20G C 0.1901(4) 0.3872(4) 0.6452(3)
H16J H 0.34660 0.18190 0.63980
H16G H 0.18190 0.36020 0.65340
C21J C 0.3691(5) 0.1614(6) 0.5863(4)
C21G C 0.1614(5) 0.4137(6) 0.6309(4)
H17J H 0.37010 0.13330 0.59470
H17G H 0.13330 0.40530 0.62990
C22J C 0.3830(5) 0.1725(6) 0.5455(5)
C22G C 0.1725(5) 0.4545(6) 0.6170(5)
H18J H 0.39370 0.15220 0.52710
H18G H 0.15220 0.47290 0.60630
C23J C 0.3804(3) 0.2140(4) 0.5337(4)
C23G C 0.2140(3) 0.4663(4) 0.6196(4)
H19J H 0.39020 0.22220 0.50720
H19G H 0.22220 0.49280 0.60980
C24J C 0.3634(3) 0.2438(3) 0.5604(3)
C24G C 0.2438(3) 0.4396(3) 0.6366(3)
H20J H 0.35990 0.27150 0.55130
H20G H 0.27150 0.44870 0.64010
C25J C 0.3257(3) 0.3468(4) 0.4887(3)
C25G C 0.3468(3) 0.5113(4) 0.6743(3)
C26J C 0.3669(4) 0.3540(4) 0.4978(4)
C26G C 0.3540(4) 0.5022(4) 0.6331(4)
H21J H 0.37480 0.36350 0.52450
H21G H 0.36350 0.47550 0.62520
C27J C 0.3971(4) 0.3472(5) 0.4672(7)
C27G C 0.3472(4) 0.5328(5) 0.6029(7)
H22J H 0.42500 0.35400 0.47360
H22G H 0.35400 0.52640 0.57500
C28J C 0.3888(4) 0.3314(6) 0.4290(6)
C28G C 0.3314(4) 0.5710(6) 0.6112(6)
H23J H 0.41040 0.32540 0.40990
H23G H 0.32540 0.59010 0.58960
C29J C 0.3509(4) 0.3247(8) 0.4196(4)
C29G C 0.3247(4) 0.5804(8) 0.6491(4)
H24J H 0.34540 0.31550 0.39220
H24G H 0.31550 0.60780 0.65460
C30J C 0.3143(3) 0.3302(5) 0.4476(3)
C30G C 0.3302(3) 0.5524(5) 0.6857(3)
H25J H 0.28670 0.32370 0.43980
H25G H 0.32370 0.56020 0.71330
C31J C 0.2385(3) 0.3259(4) 0.5144(4)
C31G C 0.3259(3) 0.4856(4) 0.7615(4)
H26J H 0.23160 0.33250 0.48490
H26G H 0.33250 0.51510 0.76840
C32J C 0.2498(4) 0.2764(6) 0.5177(4)
C32G C 0.2764(4) 0.4823(6) 0.7502(4)
H27J H 0.22560 0.25990 0.50990
H27G H 0.25990 0.49010 0.77440
H28J H 0.25790 0.26970 0.54620
H28G H 0.26970 0.45380 0.74210
H29J H 0.27280 0.26990 0.49890
H29G H 0.26990 0.50110 0.72720
C33J C 0.2010(4) 0.3376(4) 0.5420(5)
C33G C 0.3376(4) 0.4580(4) 0.7990(5)
H30J H 0.17670 0.32150 0.53340
H30G H 0.32150 0.46660 0.82330
H31J H 0.19510 0.36720 0.53910
H31G H 0.36720 0.46090 0.80490
H32J H 0.20750 0.33140 0.57100
H32G H 0.33140 0.42900 0.79250
C34J C 0.2706(3) 0.4121(3) 0.5238(3)
C34G C 0.4121(3) 0.4762(3) 0.7294(3)
H33J H 0.24880 0.41770 0.54510
H33G H 0.41770 0.45490 0.75120
C35J C 0.3075(4) 0.4410(4) 0.5331(3)
C35G C 0.4410(4) 0.4669(4) 0.6925(3)
H34J H 0.29870 0.46990 0.53010
H34G H 0.46990 0.46990 0.70130
H35J H 0.33010 0.43520 0.51370
H35G H 0.43520 0.48630 0.66990
H36J H 0.31710 0.43620 0.56150
H36G H 0.43620 0.43850 0.68290
C36J C 0.2510(3) 0.4223(4) 0.4800(4)
C36G C 0.4223(3) 0.5200(4) 0.7490(4)
H37J H 0.24340 0.45170 0.47900
H37G H 0.45170 0.52100 0.75660
H38J H 0.22630 0.40530 0.47570
H38G H 0.40530 0.52430 0.77370
H39J H 0.27130 0.41640 0.45820
H39G H 0.41640 0.54180 0.72870
#END

data_CSD_CIF_RUQMEV
_audit_creation_date 1998-03-12
_audit_creation_method CSD-ConQuest-V1
_database_code_CSD RUQMEV
_chemical_formula_sum 'C12 H36 Cu4 I4 N4'
_chemical_formula_moiety
;
C12 H36 Cu4 I4 N4
;
_journal_coden_Cambridge 580
_journal_volume 16
_journal_year 1997
_journal_page_first 1487
_journal_name_full 'Polyhedron '
loop_
_publ_author_name
"O.A.Babich"
"V.N.Kokozay"
_chemical_name_systematic
;
tetrakis(\m~3~-Iodo)-tetrakis(trimethylamino)-tetra-copper(i)
;
_cell_volume   5808.703
_exptl_crystal_density_diffrn 2.283
_diffrn_ambient_temperature ?
_diffrn_special_details
;
The study was carried out at room temperature,in the range 283-303K

;
#These two values have been output from a single CSD field.
_refine_ls_R_factor_gt 0.0335
_refine_ls_wR_factor_gt 0.0335
_symmetry_cell_setting cubic
_symmetry_space_group_name_H-M 'P -4 3 n'
_symmetry_Int_Tables_number 218
loop_
_symmetry_equiv_pos_site_id
_symmetry_equiv_pos_as_xyz
1 x,y,z
2 1/2+y,1/2-x,1/2-z
3 x,-y,-z
4 z,x,y
5 -x,-y,z
6 1/2-y,1/2-x,1/2+z
7 1/2+x,1/2-z,1/2-y
8 1/2-y,1/2+x,1/2-z
9 -x,y,-z
10 -z,-x,y
11 1/2+y,1/2+x,1/2+z
12 1/2-x,1/2+z,1/2-y
13 z,-x,-y
14 1/2+x,1/2+z,1/2+y
15 -z,x,-y
16 1/2-x,1/2-z,1/2+y
17 y,z,x
18 1/2+z,1/2-y,1/2-x
19 1/2-z,1/2-y,1/2+x
20 y,-z,-x
21 1/2+z,1/2+y,1/2+x
22 -y,z,-x
23 -y,-z,x
24 1/2-z,1/2+y,1/2-x
_cell_length_a 17.976(2)
_cell_length_b 17.976(2)
_cell_length_c 17.976(2)
_cell_angle_alpha 90
_cell_angle_beta 90
_cell_angle_gamma 90
_cell_formula_units_Z 8
loop_
_atom_type_symbol
_atom_type_radius_bond
C 0.68
H 0.23
Cu 1.13
I 1.40
N 0.68
loop_
_atom_site_label
_atom_site_type_symbol
_atom_site_fract_x
_atom_site_fract_y
_atom_site_fract_z
I1 I 0.0826(1) 0.4100(1) 0.1592(1)
I2 I 0.4118(1) 0.4118(1) 0.4118(1)
Cu1 Cu 0.0516(1) 0.4441(2) 0.3015(2)
Cu2 Cu 0.4473(2) 0.4473(2) 0.5527(2)
N1 N 0.1178(13) 0.3721(12) 0.3645(12)
N2 N 0.3790(15) 0.3790(15) 0.6210(15)
C1 C 0.1957(18) 0.3833(18) 0.3421(19)
C2 C 0.0988(20) 0.2932(14) 0.3462(25)
C3 C 0.1064(20) 0.3874(18) 0.4427(18)
C4 C 0.3879(18) 0.4027(17) 0.6963(14)
H1 H 0.2267(18) 0.3486(18) 0.3726(19)
H2 H 0.2025(18) 0.3718(18) 0.2881(19)
H3 H 0.2115(18) 0.4358(18) 0.3519(19)
H4 H 0.1303(20) 0.2584(14) 0.3760(25)
H5 H 0.0451(20) 0.2836(14) 0.3571(25)
H6 H 0.1085(20) 0.2852(14) 0.2920(25)
H7 H 0.1378(20) 0.3534(18) 0.4736(18)
H8 H 0.1199(20) 0.4402(18) 0.4537(18)
H9 H 0.0527(20) 0.3791(18) 0.4546(18)
H10 H 0.3566(18) 0.3720(17) 0.7305(14)
H11 H 0.4414(18) 0.3978(17) 0.7106(14)
H12 H 0.3725(18) 0.4561(17) 0.7000(14)
I1A I -0.0900(1) 0.4174(1) 0.3408(1)
Cu1A Cu -0.0559(1) 0.4484(2) 0.1985(2)
I1D I -0.0826(1) 0.5900(1) 0.1592(1)
Cu1D Cu -0.0516(1) 0.5559(2) 0.3015(2)
I1G I 0.0900(1) 0.5826(1) 0.3408(1)
Cu1G Cu 0.0559(1) 0.5516(2) 0.1985(2)
N1A N -0.1279(13) 0.3822(12) 0.1355(12)
C1A C -0.1167(18) 0.3043(18) 0.1579(19)
H1A H -0.1514(18) 0.2733(18) 0.1274(19)
H2A H -0.1282(18) 0.2975(18) 0.2119(19)
H3A H -0.0642(18) 0.2885(18) 0.1481(19)
C2A C -0.2068(20) 0.4012(14) 0.1538(25)
H4A H -0.2416(20) 0.3697(14) 0.1240(25)
H5A H -0.2164(20) 0.4549(14) 0.1429(25)
H6A H -0.2148(20) 0.3915(14) 0.2080(25)
C3A C -0.1126(20) 0.3936(18) 0.0573(18)
H7A H -0.1466(20) 0.3622(18) 0.0264(18)
H8A H -0.0598(20) 0.3801(18) 0.0463(18)
H9A H -0.1209(20) 0.4473(18) 0.0454(18)
N1G N 0.1279(13) 0.6178(12) 0.1355(12)
C1G C 0.1167(18) 0.6957(18) 0.1579(19)
H1G H 0.1514(18) 0.7267(18) 0.1274(19)
H2G H 0.1282(18) 0.7025(18) 0.2119(19)
H3G H 0.0642(18) 0.7115(18) 0.1481(19)
C2G C 0.2068(20) 0.5988(14) 0.1538(25)
H4G H 0.2416(20) 0.6303(14) 0.1240(25)
H5G H 0.2164(20) 0.5451(14) 0.1429(25)
H6G H 0.2148(20) 0.6085(14) 0.2080(25)
C3G C 0.1126(20) 0.6064(18) 0.0573(18)
H7G H 0.1466(20) 0.6378(18) 0.0264(18)
H8G H 0.0598(20) 0.6199(18) 0.0463(18)
H9G H 0.1209(20) 0.5527(18) 0.0454(18)
N1D N -0.1178(13) 0.6279(12) 0.3645(12)
C1D C -0.1957(18) 0.6167(18) 0.3421(19)
H1D H -0.2267(18) 0.6514(18) 0.3726(19)
H2D H -0.2025(18) 0.6282(18) 0.2881(19)
H3D H -0.2115(18) 0.5642(18) 0.3519(19)
C2D C -0.0988(20) 0.7068(14) 0.3462(25)
H4D H -0.1303(20) 0.7416(14) 0.3760(25)
H5D H -0.0451(20) 0.7164(14) 0.3571(25)
H6D H -0.1085(20) 0.7148(14) 0.2920(25)
C3D C -0.1064(20) 0.6126(18) 0.4427(18)
H7D H -0.1378(20) 0.6466(18) 0.4736(18)
H8D H -0.1199(20) 0.5598(18) 0.4537(18)
H9D H -0.0527(20) 0.6209(18) 0.4546(18)
I2B I 0.4118(1) 0.5882(1) 0.5882(1)
Cu2B Cu 0.4473(2) 0.5527(2) 0.4473(2)
Cu2C Cu 0.5527(2) 0.4473(2) 0.4473(2)
I2N I 0.5882(1) 0.4118(1) 0.5882(1)
C4N C 0.3037(18) 0.3879(17) 0.5973(14)
H10N H 0.2695(18) 0.3566(17) 0.6280(14)
H11N H 0.2894(18) 0.4414(17) 0.6022(14)
H12N H 0.3000(18) 0.3725(17) 0.5439(14)
C4S C 0.4027(18) 0.3037(17) 0.6121(14)
H10S H 0.3720(18) 0.2695(17) 0.6434(14)
H11S H 0.3978(18) 0.2894(17) 0.5586(14)
H12S H 0.4561(18) 0.3000(17) 0.6275(14)
Cu2U Cu 0.5527(2) 0.5527(2) 0.5527(2)
I2V I 0.5882(1) 0.5882(1) 0.4118(1)
N2C N 0.6210(15) 0.3790(15) 0.3790(15)
C4C C 0.6963(18) 0.3879(17) 0.4027(14)
H10C H 0.7305(18) 0.3566(17) 0.3720(14)
H11C H 0.7106(18) 0.4414(17) 0.3978(14)
H12C H 0.7000(18) 0.3725(17) 0.4561(14)
C4V C 0.5973(18) 0.3037(17) 0.3879(14)
H10V H 0.6280(18) 0.2695(17) 0.3566(14)
H11V H 0.6022(18) 0.2894(17) 0.4414(14)
H12V H 0.5439(18) 0.3000(17) 0.3725(14)
C4H C 0.6121(18) 0.4027(17) 0.3037(14)
H10H H 0.6434(18) 0.3720(17) 0.2695(14)
H11H H 0.5586(18) 0.3978(17) 0.2894(14)
H12H H 0.6275(18) 0.4561(17) 0.3000(14)
N2B N 0.3790(15) 0.6210(15) 0.3790(15)
C4B C 0.3879(18) 0.5973(17) 0.3037(14)
H10B H 0.3566(18) 0.6280(17) 0.2695(14)
H11B H 0.4414(18) 0.6022(17) 0.2894(14)
H12B H 0.3725(18) 0.5439(17) 0.3000(14)
C4I C 0.3037(18) 0.6121(17) 0.4027(14)
H10I H 0.2695(18) 0.6434(17) 0.3720(14)
H11I H 0.2894(18) 0.5586(17) 0.3978(14)
H12I H 0.3000(18) 0.6275(17) 0.4561(14)
C4P C 0.4027(18) 0.6963(17) 0.3879(14)
H10P H 0.3720(18) 0.7305(17) 0.3566(14)
H11P H 0.3978(18) 0.7106(17) 0.4414(14)
H12P H 0.4561(18) 0.7000(17) 0.3725(14)
N2U N 0.6210(15) 0.6210(15) 0.6210(15)
C4U C 0.5973(18) 0.6963(17) 0.6121(14)
H10U H 0.6280(18) 0.7305(17) 0.6434(14)
H11U H 0.6022(18) 0.7106(17) 0.5586(14)
H12U H 0.5439(18) 0.7000(17) 0.6275(14)
C4D C 0.6121(18) 0.5973(17) 0.6963(14)
H10D H 0.6434(18) 0.6280(17) 0.7305(14)
H11D H 0.5586(18) 0.6022(17) 0.7106(14)
H12D H 0.6275(18) 0.5439(17) 0.7000(14)
C4L C 0.6963(18) 0.6121(17) 0.5973(14)
H10L H 0.7305(18) 0.6434(17) 0.6280(14)
H11L H 0.7106(18) 0.5586(17) 0.6022(14)
H12L H 0.7000(18) 0.6275(17) 0.5439(14)
#END

data_CSD_CIF_SENLAY
_audit_creation_date 1990-12-10
_audit_creation_method CSD-ConQuest-V1
_database_code_CSD SENLAY
_chemical_formula_sum 'C16 H36 P4 Si4'
_chemical_formula_moiety
;
C16 H36 P4 Si4
;
_journal_coeditor_code "IUCr BX0387"
_journal_coden_Cambridge 591
_journal_volume 46
_journal_year 1990
_journal_page_first 1071
_journal_name_full 'Acta Crystallogr.,Sect.C:Cryst.Struct.Commun. '
loop_
_publ_author_name
"K.-F.Tebbe"
"M.Feher"
_chemical_name_systematic
;
2,4,6,8-Tetra-t-butyl-1,3,5,7-tetraphospha-2,4,6,8-tetrasila-pentacyclo(4.2.0.
0^2,5^.0^3,8^.0^4,7^)octane
;
_chemical_melting_point 597
_cell_volume   5276.203
_exptl_crystal_colour 'colorless'
_diffrn_ambient_temperature ?
_diffrn_special_details
;
The study was carried out at room temperature,in the range 283-303K

;
#These two values have been output from a single CSD field.
_refine_ls_R_factor_gt 0.026
_refine_ls_wR_factor_gt 0.026
_symmetry_cell_setting cubic
_symmetry_space_group_name_H-M 'P -4 3 n'
_symmetry_Int_Tables_number 218
loop_
_symmetry_equiv_pos_site_id
_symmetry_equiv_pos_as_xyz
1 x,y,z
2 z,x,y
3 y,z,x
4 x,-y,-z
5 z,-x,-y
6 y,-z,-x
7 -x,y,-z
8 -z,x,-y
9 -y,z,-x
10 -x,-y,z
11 -z,-x,y
12 -y,-z,x
13 1/2+y,1/2+x,1/2+z
14 1/2+x,1/2+z,1/2+y
15 1/2+z,1/2+y,1/2+x
16 1/2-y,1/2+x,1/2-z
17 1/2-x,1/2+z,1/2-y
18 1/2-z,1/2+y,1/2-x
19 1/2+y,1/2-x,1/2-z
20 1/2+x,1/2-z,1/2-y
21 1/2+z,1/2-y,1/2-x
22 1/2-y,1/2-x,1/2+z
23 1/2-x,1/2-z,1/2+y
24 1/2-z,1/2-y,1/2+x
_cell_length_a 17.409(4)
_cell_length_b 17.409(4)
_cell_length_c 17.409(4)
_cell_angle_alpha 90
_cell_angle_beta 90
_cell_angle_gamma 90
_cell_formula_units_Z 8
loop_
_atom_type_symbol
_atom_type_radius_bond
C 0.68
H 0.23
P 1.05
Si 1.20
loop_
_atom_site_label
_atom_site_type_symbol
_atom_site_fract_x
_atom_site_fract_y
_atom_site_fract_z
P1 P 0.17740(7) 0.42639(8) 0.06913(7)
Si1 Si 0.30722(8) 0.44025(7) 0.05605(8)
C1 C 0.3660(3) 0.3735(3) 0.1187(4)
C2 C 0.4506(4) 0.3917(5) 0.1115(5)
C3 C 0.3511(4) 0.2919(4) 0.0958(5)
C4 C 0.3421(4) 0.3853(4) 0.2032(4)
P2 P 0.92829(8) 0.92829(8) 0.92829(8)
Si2 Si 1.05761(8) 0.94239(8) 0.94239(8)
C5 C 1.1207(4) 0.8793(4) 0.8793(4)
C6 C 1.2047(4) 0.8925(5) 0.9068(5)
H1 H 0.46050 0.45070 0.12810
H2 H 0.46860 0.38340 0.05280
H3 H 0.48310 0.35410 0.14860
H4 H 0.29050 0.27980 0.10120
H5 H 0.38320 0.25390 0.13280
H6 H 0.36880 0.28340 0.03700
H7 H 0.28180 0.37250 0.20960
H8 H 0.35260 0.44420 0.21960
H9 H 0.37530 0.34750 0.23960
H10 H 1.23380 0.93520 0.94110
H11 H 1.22180 0.89850 0.84750
H12 H 1.21990 0.83580 0.92710
Si1P Si 0.19278(8) 0.55605(7) 0.05975(8)
Si1V Si 0.19278(8) 0.44395(7) -0.05975(8)
P1P P 0.32260(7) 0.56913(8) 0.07361(7)
P1V P 0.32260(7) 0.43087(8) -0.07361(7)
P1C P 0.17740(7) 0.57361(8) -0.06913(7)
C1P C 0.1340(3) 0.6187(3) 0.1265(4)
C1V C 0.1340(3) 0.3813(3) -0.1265(4)
Si1C Si 0.30722(8) 0.55975(7) -0.05605(8)
C2P C 0.0494(4) 0.6115(5) 0.1083(5)
C3P C 0.1489(4) 0.5958(4) 0.2081(5)
C4P C 0.1579(4) 0.7032(4) 0.1147(4)
C2V C 0.0494(4) 0.3885(5) -0.1083(5)
C3V C 0.1489(4) 0.4042(4) -0.2081(5)
C4V C 0.1579(4) 0.2968(4) -0.1147(4)
C1C C 0.3660(3) 0.6265(3) -0.1187(4)
H1P H 0.03950 0.62810 0.04930
H2P H 0.03140 0.55280 0.11660
H3P H 0.01690 0.64860 0.14590
H4P H 0.20950 0.60120 0.22020
H5P H 0.11680 0.63280 0.24610
H6P H 0.13120 0.53700 0.21660
H7P H 0.21820 0.70960 0.12750
H8P H 0.14740 0.71960 0.05580
H9P H 0.12470 0.73960 0.15250
H1V H 0.03950 0.37190 -0.04930
H2V H 0.03140 0.44720 -0.11660
H3V H 0.01690 0.35140 -0.14590
H4V H 0.20950 0.39880 -0.22020
H5V H 0.11680 0.36720 -0.24610
H6V H 0.13120 0.46300 -0.21660
H7V H 0.21820 0.29040 -0.12750
H8V H 0.14740 0.28040 -0.05580
H9V H 0.12470 0.26040 -0.15250
C2C C 0.4506(4) 0.6083(5) -0.1115(5)
C3C C 0.3511(4) 0.7081(4) -0.0958(5)
C4C C 0.3421(4) 0.6147(4) -0.2032(4)
H1C H 0.46050 0.54930 -0.12810
H2C H 0.46860 0.61660 -0.05280
H3C H 0.48310 0.64590 -0.14860
H4C H 0.29050 0.72020 -0.10120
H5C H 0.38320 0.74610 -0.13280
H6C H 0.36880 0.71660 -0.03700
H7C H 0.28180 0.62750 -0.20960
H8C H 0.35260 0.55580 -0.21960
H9C H 0.37530 0.65250 -0.23960
Si2A Si 0.94239(8) 1.05761(8) 0.94239(8)
Si2B Si 0.94239(8) 0.94239(8) 1.05761(8)
P2F P 1.07171(8) 0.92829(8) 1.07171(8)
P2I P 1.07171(8) 1.07171(8) 0.92829(8)
C6H C 1.1075(4) 0.9068(5) 0.7953(5)
C6J C 1.0932(4) 0.7953(5) 0.8925(5)
P2C P 0.92829(8) 1.07171(8) 1.07171(8)
C5A C 0.8793(4) 1.1207(4) 0.8793(4)
C5B C 0.8793(4) 0.8793(4) 1.1207(4)
Si2C Si 1.05761(8) 1.05761(8) 1.05761(8)
H10H H 1.06480 0.94110 0.76620
H11H H 1.10150 0.84750 0.77820
H12H H 1.16420 0.92710 0.78010
H10J H 1.05890 0.76620 0.93520
H11J H 1.15250 0.77820 0.89850
H12J H 1.07290 0.78010 0.83580
C6A C 0.9068(4) 1.2047(5) 0.8925(5)
C6E C 0.8925(4) 1.0932(5) 0.7953(5)
C6I C 0.7953(4) 1.1075(5) 0.9068(5)
C6B C 0.8925(4) 0.9068(5) 1.2047(5)
C6D C 0.9068(4) 0.7953(5) 1.1075(5)
C6F C 0.7953(4) 0.8925(5) 1.0932(5)
C5C C 1.1207(4) 1.1207(4) 1.1207(4)
H10A H 0.94110 1.23380 0.93520
H11A H 0.84750 1.22180 0.89850
H12A H 0.92710 1.21990 0.83580
H10E H 0.93520 1.05890 0.76620
H11E H 0.89850 1.15250 0.77820
H12E H 0.83580 1.07290 0.78010
H10I H 0.76620 1.06480 0.94110
H11I H 0.77820 1.10150 0.84750
H12I H 0.78010 1.16420 0.92710
H10B H 0.93520 0.94110 1.23380
H11B H 0.89850 0.84750 1.22180
H12B H 0.83580 0.92710 1.21990
H10D H 0.94110 0.76620 1.06480
H11D H 0.84750 0.77820 1.10150
H12D H 0.92710 0.78010 1.16420
H10F H 0.76620 0.93520 1.05890
H11F H 0.77820 0.89850 1.15250
H12F H 0.78010 0.83580 1.07290
C6C C 1.2047(4) 1.1075(5) 1.0932(5)
C6G C 1.0932(4) 1.2047(5) 1.1075(5)
C6K C 1.1075(4) 1.0932(5) 1.2047(5)
H10C H 1.23380 1.06480 1.05890
H11C H 1.22180 1.10150 1.15250
H12C H 1.21990 1.16420 1.07290
H10G H 1.05890 1.23380 1.06480
H11G H 1.15250 1.22180 1.10150
H12G H 1.07290 1.21990 1.16420
H10K H 1.06480 1.05890 1.23380
H11K H 1.10150 1.15250 1.22180
H12K H 1.16420 1.07290 1.21990
#END

data_CSD_CIF_TAMCUG01
_audit_creation_date 1980-01-28
_audit_creation_method CSD-ConQuest-V1
_database_code_CSD TAMCUG01
_database_code_depnum_ccdc_archive 'CCDC 1266087'
_chemical_formula_sum 'C16 H48 Cl10 Cu4 N4 O1'
_chemical_formula_moiety
;
4(C4 H12 N1 1+),Cl10 Cu4 O1 4-
;
_journal_coden_Cambridge 189
_journal_volume 8
_journal_year 1979
_journal_page_first 767
_journal_name_full 'Cryst.Struct.Commun. '
loop_
_publ_author_name
"E.M.Holt"
"S.L.Holt"
"M.Vlasse"
_chemical_name_systematic
;
Tetramethylammonium 
(\m~4~-oxo)-hexakis(\m~2~-chloro)-tetrakis(chloro-copper(ii))
;
_cell_volume   7257.438
_exptl_crystal_density_diffrn 1.68
_diffrn_ambient_temperature ?
_diffrn_special_details
;
The study was carried out at room temperature,in the range 283-303K

;
#These two values have been output from a single CSD field.
_refine_ls_R_factor_gt 0.036
_refine_ls_wR_factor_gt 0.036
_symmetry_cell_setting cubic
_symmetry_space_group_name_H-M 'P -4 3 n'
_symmetry_Int_Tables_number 218
loop_
_symmetry_equiv_pos_site_id
_symmetry_equiv_pos_as_xyz
1 x,y,z
2 z,x,y
3 y,z,x
4 x,-y,-z
5 z,-x,-y
6 y,-z,-x
7 -x,y,-z
8 -z,x,-y
9 -y,z,-x
10 -x,-y,z
11 -z,-x,y
12 -y,-z,x
13 1/2+y,1/2+x,1/2+z
14 1/2+x,1/2+z,1/2+y
15 1/2+z,1/2+y,1/2+x
16 1/2-y,1/2+x,1/2-z
17 1/2-x,1/2+z,1/2-y
18 1/2-z,1/2+y,1/2-x
19 1/2+y,1/2-x,1/2-z
20 1/2+x,1/2-z,1/2-y
21 1/2+z,1/2-y,1/2-x
22 1/2-y,1/2-x,1/2+z
23 1/2-x,1/2-z,1/2+y
24 1/2-z,1/2-y,1/2+x
_cell_length_a 19.361(6)
_cell_length_b 19.361(6)
_cell_length_c 19.361(6)
_cell_angle_alpha 90
_cell_angle_beta 90
_cell_angle_gamma 90
_cell_formula_units_Z 8
loop_
_atom_type_symbol
_atom_type_radius_bond
C 0.68
Cl 0.99
Cu 1.36
N 0.68
O 0.68
loop_
_atom_site_label
_atom_site_type_symbol
_atom_site_fract_x
_atom_site_fract_y
_atom_site_fract_z
O1 O 0.00000 0.00000 0.00000
Cu1 Cu 0.05840 0.05840 0.05840
Cl1 Cl 0.15220 0.00000 0.00000
Cl2 Cl 0.12410 0.12410 0.12410
O2 O 0.25000 0.00000 0.50000
Cu2 Cu 0.19270 0.06380 0.54990
Cl3 Cl 0.10000 0.00000 0.50000
Cl4 Cl 0.24730 0.01850 0.65030
Cl5 Cl 0.12760 0.14190 0.60810
N1 N 0.33650 0.33650 0.33650
C1 C 0.29710 0.29710 0.29710
C2 C 0.33900 0.30690 0.40280
N2 N 0.85580 0.33960 0.92380
C3 C 0.80910 0.29440 0.96440
C4 C 0.84560 0.31910 0.84910
C5 C 0.92870 0.33030 0.94700
C6 C 0.83520 0.41300 0.93230
Cu1C Cu 0.05840 -0.05840 -0.05840
Cu1F Cu -0.05840 0.05840 -0.05840
Cu1I Cu -0.05840 -0.05840 0.05840
Cl1A Cl 0.00000 0.15220 0.00000
Cl1B Cl 0.00000 0.00000 0.15220
Cl1D Cl 0.00000 -0.15220 0.00000
Cl1E Cl 0.00000 0.00000 -0.15220
Cl2C Cl 0.12410 -0.12410 -0.12410
Cl1F Cl -0.15220 0.00000 0.00000
Cl2F Cl -0.12410 0.12410 -0.12410
Cl2I Cl -0.12410 -0.12410 0.12410
Cu2C Cu 0.19270 -0.06380 0.45010
Cu2P Cu 0.30730 0.04990 0.43620
Cu2V Cu 0.30730 -0.04990 0.56380
Cl4P Cl 0.25270 0.15030 0.48150
Cl4C Cl 0.24730 -0.01850 0.34970
Cl4V Cl 0.25270 -0.15030 0.51850
Cl5C Cl 0.12760 -0.14190 0.39190
Cl3P Cl 0.40000 0.00000 0.50000
Cl5P Cl 0.37240 0.10810 0.35810
Cl5V Cl 0.37240 -0.10810 0.64190
C2A C 0.40280 0.33900 0.30690
C2B C 0.30690 0.40280 0.33900
#END

data_CSD_CIF_UDIJEY
_audit_creation_date 2013-07-30
_audit_creation_method CSD-ConQuest-V1
_database_code_CSD UDIJEY
_database_code_depnum_ccdc_archive 'CCDC 899246'
_chemical_formula_sum 'C16 F36 O4 Tl4'
_chemical_formula_moiety
;
C16 F36 O4 Tl4
;
_journal_coden_Cambridge 1220
_journal_volume 19
_journal_year 2013
_journal_page_first 6374
_journal_name_full 'Chem.-Eur.J. '
loop_
_publ_author_name
"J.S.Lum"
"L.Tahsini"
"J.A.Golen"
"C.Moore"
"A.L.Rheingold"
"L.H.Doerrer"
_chemical_name_systematic
;
tetrakis(\m~3~-1,1,1,3,3,3-Hexafluoro-2-(trifluoromethyl)propan-2-olato)-tetra
-thallium
;
_cell_volume   6275.015
_exptl_crystal_colour 'colorless'
_exptl_crystal_density_diffrn 3.721
_exptl_crystal_description 'block'
_diffrn_ambient_temperature 100
#These two values have been output from a single CSD field.
_refine_ls_R_factor_gt 0.0298
_refine_ls_wR_factor_gt 0.0298
_symmetry_cell_setting cubic
_symmetry_space_group_name_H-M 'P -4 3 n'
_symmetry_Int_Tables_number 218
loop_
_symmetry_equiv_pos_site_id
_symmetry_equiv_pos_as_xyz
1 x,y,z
2 1/2-x,1/2+z,1/2-y
3 1/2-x,1/2-z,1/2+y
4 1/2-z,1/2-y,1/2+x
5 1/2+z,1/2-y,1/2-x
6 1/2+y,1/2-x,1/2-z
7 1/2-y,1/2+x,1/2-z
8 z,x,y
9 y,z,x
10 -y,-z,x
11 z,-x,-y
12 -y,z,-x
13 -z,-x,y
14 -z,x,-y
15 y,-z,-x
16 x,-y,-z
17 -x,y,-z
18 -x,-y,z
19 1/2-y,1/2-x,1/2+z
20 1/2+y,1/2+x,1/2+z
21 1/2-z,1/2+y,1/2-x
22 1/2+z,1/2+y,1/2+x
23 1/2+x,1/2-z,1/2-y
24 1/2+x,1/2+z,1/2+y
_cell_length_a 18.4447(14)
_cell_length_b 18.4447(14)
_cell_length_c 18.4447(14)
_cell_angle_alpha 90
_cell_angle_beta 90
_cell_angle_gamma 90
_cell_formula_units_Z 8
loop_
_atom_type_symbol
_atom_type_radius_bond
C 0.68
F 0.64
O 0.68
Tl 1.45
loop_
_atom_site_label
_atom_site_type_symbol
_atom_site_fract_x
_atom_site_fract_y
_atom_site_fract_z
Tl1 Tl 0.922188(17) 0.922188(17) 1.077813(17)
F1 F 0.9773(3) 0.8496(4) 0.8033(4)
F2 F 0.9375(4) 0.9568(4) 0.7910(3)
F3 F 0.8696(4) 0.8654(4) 0.7614(4)
O1 O 0.9332(3) 0.9332(3) 0.9332(3)
C1 C 0.8904(5) 0.8904(5) 0.8904(5)
C2 C 0.9183(6) 0.8894(5) 0.8107(5)
F4 F 0.6357(4) 0.9795(3) 1.1425(3)
F5 F 0.5551(4) 0.9540(3) 1.0625(4)
F6 F 0.6649(5) 0.9327(5) 1.0358(4)
F7 F 0.6244(3) 0.8749(3) 1.2488(3)
F8 F 0.5496(5) 0.7919(4) 1.2160(3)
F9 F 0.5194(4) 0.9011(6) 1.1967(5)
F10 F 0.7099(4) 0.7962(5) 1.0637(5)
F11 F 0.7350(3) 0.8693(3) 1.1502(3)
F12 F 0.6874(5) 0.7627(4) 1.1690(6)
O2 O 0.5676(3) 0.8124(3) 1.0745(3)
C3 C 0.6092(6) 0.8529(6) 1.1192(6)
C4 C 0.6134(7) 0.9333(6) 1.0923(7)
C5 C 0.5794(6) 0.8519(6) 1.1961(5)
C6 C 0.6869(6) 0.8278(9) 1.1200(8)
Tl2 Tl 0.572432(16) 0.670244(17) 1.080092(17)
F1G F 0.8033(3) 0.9773(4) 0.8496(4)
F2G F 0.7910(4) 0.9375(4) 0.9568(3)
F3G F 0.7614(4) 0.8696(4) 0.8654(4)
C2G C 0.8107(6) 0.9183(5) 0.8894(5)
F1H F 0.8496(3) 0.8033(4) 0.9773(4)
F2H F 0.9568(4) 0.7910(4) 0.9375(3)
F3H F 0.8654(4) 0.7614(4) 0.8696(4)
C2H C 0.8894(6) 0.8107(5) 0.9183(5)
Tl1G Tl 1.077813(17) 0.922188(17) 0.922188(17)
Tl1H Tl 0.922188(17) 1.077813(17) 0.922188(17)
F1I F 1.1504(3) 1.1967(4) 0.9773(4)
F2I F 1.0432(4) 1.2090(4) 0.9375(3)
F3I F 1.1346(4) 1.2386(4) 0.8696(4)
O1I O 1.0668(3) 1.0668(3) 0.9332(3)
C1I C 1.1096(5) 1.1096(5) 0.8904(5)
C2I C 1.1106(6) 1.1893(5) 0.9183(5)
F1Q F 1.0227(3) 1.1504(4) 0.8033(4)
F2Q F 1.0625(4) 1.0432(4) 0.7910(3)
F3Q F 1.1304(4) 1.1346(4) 0.7614(4)
C2Q C 1.0817(6) 1.1106(5) 0.8107(5)
F1L F 1.1967(3) 1.0227(4) 0.8496(4)
F2L F 1.2090(4) 1.0625(4) 0.9568(3)
F3L F 1.2386(4) 1.1304(4) 0.8654(4)
C2L C 1.1893(6) 1.0817(5) 0.8894(5)
Tl1J Tl 1.077813(17) 1.077812(17) 1.077812(17)
F1J F 0.8033(3) 1.0227(4) 1.1504(4)
F2J F 0.7910(4) 1.0625(4) 1.0432(3)
F3J F 0.7614(4) 1.1304(4) 1.1346(4)
O1J O 0.9332(3) 1.0668(3) 1.0668(3)
C1J C 0.8904(5) 1.1096(5) 1.1096(5)
C2J C 0.8107(6) 1.0817(5) 1.1106(5)
F1N F 0.8496(3) 1.1967(4) 1.0227(4)
F2N F 0.9568(4) 1.2090(4) 1.0625(3)
F3N F 0.8654(4) 1.2386(4) 1.1304(4)
C2N C 0.8894(6) 1.1893(5) 1.0817(5)
F1O F 0.9773(3) 1.1504(4) 1.1967(4)
F2O F 0.9375(4) 1.0432(4) 1.2090(3)
F3O F 0.8696(4) 1.1346(4) 1.2386(4)
C2O C 0.9183(6) 1.1106(5) 1.1893(5)
F1K F 1.1504(3) 0.8033(4) 1.0227(4)
F2K F 1.0432(4) 0.7910(4) 1.0625(3)
F3K F 1.1346(4) 0.7614(4) 1.1304(4)
O1K O 1.0668(3) 0.9332(3) 1.0668(3)
C1K C 1.1096(5) 0.8904(5) 1.1096(5)
C2K C 1.1106(6) 0.8107(5) 1.0817(5)
F1P F 1.0227(3) 0.8496(4) 1.1967(4)
F2P F 1.0625(4) 0.9568(4) 1.2090(3)
F3P F 1.1304(4) 0.8654(4) 1.2386(4)
C2P C 1.0817(6) 0.8894(5) 1.1893(5)
F1M F 1.1967(3) 0.9773(4) 1.1504(4)
F2M F 1.2090(4) 0.9375(4) 1.0432(3)
F3M F 1.2386(4) 0.8696(4) 1.1346(4)
C2M C 1.1893(6) 0.9183(5) 1.1106(5)
F4C F 0.3575(4) 0.5205(3) 1.1357(3)
F5C F 0.4375(4) 0.5460(3) 1.0551(4)
F6C F 0.4642(5) 0.5673(5) 1.1649(4)
F7C F 0.2512(3) 0.6251(3) 1.1244(3)
F8C F 0.2840(5) 0.7081(4) 1.0496(3)
F9C F 0.3033(4) 0.5989(6) 1.0194(5)
F10C F 0.4363(4) 0.7038(5) 1.2099(5)
F11C F 0.3498(3) 0.6307(3) 1.2350(3)
F12C F 0.3310(5) 0.7373(4) 1.1874(6)
O2C O 0.4255(3) 0.6876(3) 1.0676(3)
C3C C 0.3808(6) 0.6471(6) 1.1092(6)
C4C C 0.4077(7) 0.5667(6) 1.1134(7)
C5C C 0.3039(6) 0.6481(6) 1.0794(5)
C6C C 0.3800(6) 0.6722(9) 1.1869(8)
Tl2C Tl 0.419908(16) 0.829756(17) 1.072432(17)
F4D F 0.6425(4) 0.5205(3) 0.8643(3)
F5D F 0.5625(4) 0.5460(3) 0.9449(4)
F6D F 0.5358(5) 0.5673(5) 0.8351(4)
F7D F 0.7488(3) 0.6251(3) 0.8756(3)
F8D F 0.7160(5) 0.7081(4) 0.9504(3)
F9D F 0.6967(4) 0.5989(6) 0.9806(5)
F10D F 0.5637(4) 0.7038(5) 0.7901(5)
F11D F 0.6502(3) 0.6307(3) 0.7650(3)
F12D F 0.6690(5) 0.7373(4) 0.8126(6)
O2D O 0.5745(3) 0.6876(3) 0.9324(3)
C3D C 0.6192(6) 0.6471(6) 0.8908(6)
C4D C 0.5923(7) 0.5667(6) 0.8866(7)
C5D C 0.6961(6) 0.6481(6) 0.9206(5)
C6D C 0.6200(6) 0.6722(9) 0.8131(8)
Tl2D Tl 0.580092(16) 0.829756(17) 0.927568(17)
F4P F 0.3643(4) 0.9795(3) 0.8575(3)
F5P F 0.4449(4) 0.9540(3) 0.9375(4)
F6P F 0.3351(5) 0.9327(5) 0.9642(4)
F7P F 0.3756(3) 0.8749(3) 0.7512(3)
F8P F 0.4504(5) 0.7919(4) 0.7840(3)
F9P F 0.4806(4) 0.9011(6) 0.8033(5)
F10P F 0.2901(4) 0.7962(5) 0.9363(5)
F11P F 0.2650(3) 0.8693(3) 0.8498(3)
F12P F 0.3126(5) 0.7627(4) 0.8310(6)
O2P O 0.4324(3) 0.8124(3) 0.9255(3)
C3P C 0.3908(6) 0.8529(6) 0.8808(6)
C4P C 0.3866(7) 0.9333(6) 0.9077(7)
C5P C 0.4206(6) 0.8519(6) 0.8039(5)
C6P C 0.3131(6) 0.8278(9) 0.8800(8)
Tl2P Tl 0.427568(16) 0.670244(17) 0.919908(17)
#END

data_CSD_CIF_VUBYAV
_audit_creation_date 2019-11-28
_audit_creation_method CSD-ConQuest-V1
_database_code_CSD VUBYAV
_database_code_depnum_ccdc_archive 'CCDC 1886575'
_chemical_formula_sum 'C40 H60 Ge4 N4'
_chemical_formula_moiety
;
C40 H60 Ge4 N4
;
_journal_coden_Cambridge 4
_journal_volume 141
_journal_year 2019
_journal_page_first 3424
_journal_name_full 'J.Am.Chem.Soc. '
loop_
_publ_author_name
"K.M.Krebs"
"D.Hanselmann"
"H.Schubert"
"K.Wurst"
"M.Scheele"
"L.Wesemann"
_chemical_name_systematic
;
tetrakis(\m-(adamantan-1-yl)imido)-tetra-germanium
;
_cell_volume   7454.873
_exptl_crystal_colour 'colorless'
_exptl_crystal_density_diffrn 1.581
_exptl_crystal_description 'prism'
_diffrn_ambient_temperature 100
#These two values have been output from a single CSD field.
_refine_ls_R_factor_gt 0.0268
_refine_ls_wR_factor_gt 0.0268
_symmetry_cell_setting cubic
_symmetry_space_group_name_H-M 'P -4 3 n'
_symmetry_Int_Tables_number 218
loop_
_symmetry_equiv_pos_site_id
_symmetry_equiv_pos_as_xyz
1 x,y,z
2 -x,-y,z
3 -x,y,-z
4 x,-y,-z
5 z,x,y
6 z,-x,-y
7 -z,-x,y
8 -z,x,-y
9 y,z,x
10 -y,z,-x
11 y,-z,-x
12 -y,-z,x
13 1/2+y,1/2+x,1/2+z
14 1/2-y,1/2-x,1/2+z
15 1/2+y,1/2-x,1/2-z
16 1/2-y,1/2+x,1/2-z
17 1/2+x,1/2+z,1/2+y
18 1/2-x,1/2+z,1/2-y
19 1/2-x,1/2-z,1/2+y
20 1/2+x,1/2-z,1/2-y
21 1/2+z,1/2+y,1/2+x
22 1/2+z,1/2-y,1/2-x
23 1/2-z,1/2+y,1/2-x
24 1/2-z,1/2-y,1/2+x
_cell_length_a 19.5350(6)
_cell_length_b 19.5350(6)
_cell_length_c 19.5350(6)
_cell_angle_alpha 90
_cell_angle_beta 90
_cell_angle_gamma 90
_cell_formula_units_Z 8
loop_
_atom_type_symbol
_atom_type_radius_bond
C 0.68
H 0.23
Ge 1.17
N 0.68
loop_
_atom_site_label
_atom_site_type_symbol
_atom_site_fract_x
_atom_site_fract_y
_atom_site_fract_z
Ge1 Ge 0.05284(2) 0.69610(3) 0.55670(2)
N1 N 0.04943(19) 0.70149(18) 0.45425(18)
C1 C 0.1965(3) 0.5472(3) 0.4031(3)
H1 H 0.22662 0.51619 0.37660
H2 H 0.20430 0.53834 0.45236
C2 C 0.1093(3) 0.5463(3) 0.3103(3)
H3 H 0.06051 0.53732 0.29995
H4 H 0.13748 0.51518 0.28190
C3 C 0.2016(3) 0.6345(3) 0.3104(3)
H5 H 0.21281 0.68273 0.29942
H6 H 0.23137 0.60460 0.28242
C4 C 0.0811(3) 0.6686(3) 0.3368(2)
H7 H 0.09188 0.71687 0.32580
H8 H 0.03229 0.66042 0.32580
C5 C 0.0766(3) 0.5806(2) 0.4294(3)
H9 H 0.02788 0.57138 0.41887
H10 H 0.08416 0.57147 0.47864
C6 C 0.2147(4) 0.6210(3) 0.3869(3)
H11 H 0.26403 0.62957 0.39777
C7 C 0.0934(2) 0.6556(3) 0.4134(2)
C8 C 0.1230(3) 0.5325(2) 0.3857(3)
H12 H 0.11224 0.48367 0.39653
C9 C 0.1690(3) 0.6687(3) 0.4302(2)
H13 H 0.17731 0.66023 0.47948
H14 H 0.18056 0.71709 0.42035
C10 C 0.1267(3) 0.6205(3) 0.2934(2)
H15 H 0.11840 0.62916 0.24363
Ge2 Ge 0.44543(2) 0.44543(2) 0.55457(2)
N2 N 0.45193(18) 0.45193(18) 0.45193(18)
C11 C 0.3053(3) 0.2985(3) 0.3926(3)
H16 H 0.29738 0.28626 0.44110
H17 H 0.27583 0.26901 0.36377
C12 C 0.3328(3) 0.4187(3) 0.4265(3)
H18 H 0.32060 0.46755 0.42042
H19 H 0.32537 0.40660 0.47515
C13 C 0.4081(2) 0.4081(2) 0.4081(2)
C14 C 0.2867(3) 0.3742(3) 0.3809(3)
H20 H 0.23760 0.38195 0.39307
Ge1B Ge -0.05284(2) 0.69610(3) 0.44330(2)
N1B N -0.04943(19) 0.70149(18) 0.54575(18)
C1B C -0.1965(3) 0.5472(3) 0.5969(3)
H1B H -0.22662 0.51619 0.62340
H2B H -0.20430 0.53834 0.54764
C2B C -0.1093(3) 0.5463(3) 0.6897(3)
H3B H -0.06051 0.53732 0.70005
H4B H -0.13748 0.51518 0.71810
C3B C -0.2016(3) 0.6345(3) 0.6896(3)
H5B H -0.21281 0.68273 0.70058
H6B H -0.23137 0.60460 0.71758
C4B C -0.0811(3) 0.6686(3) 0.6632(2)
H7B H -0.09188 0.71687 0.67420
H8B H -0.03229 0.66042 0.67420
C5B C -0.0766(3) 0.5806(2) 0.5706(3)
H9B H -0.02788 0.57138 0.58113
H10B H -0.08416 0.57147 0.52136
C6B C -0.2147(4) 0.6210(3) 0.6131(3)
H11B H -0.26403 0.62957 0.60223
C7B C -0.0934(2) 0.6556(3) 0.5866(2)
C8B C -0.1230(3) 0.5325(2) 0.6143(3)
H12B H -0.11224 0.48367 0.60347
C9B C -0.1690(3) 0.6687(3) 0.5698(2)
H13B H -0.17731 0.66023 0.52052
H14B H -0.18056 0.71709 0.57965
C10B C -0.1267(3) 0.6205(3) 0.7066(2)
H15B H -0.11840 0.62916 0.75637
Ge1U Ge 0.05670(2) 0.80390(3) 0.44716(2)
N1U N -0.04575(19) 0.79851(18) 0.45057(18)
C1U C -0.0969(3) 0.9528(3) 0.3035(3)
H1U H -0.12340 0.98381 0.27338
H2U H -0.04764 0.96166 0.29570
C2U C -0.1897(3) 0.9537(3) 0.3907(3)
H3U H -0.20005 0.96268 0.43949
H4U H -0.21810 0.98482 0.36252
C3U C -0.1896(3) 0.8655(3) 0.2984(3)
H5U H -0.20058 0.81727 0.28719
H6U H -0.21758 0.89540 0.26863
C4U C -0.1632(3) 0.8314(3) 0.4189(2)
H7U H -0.17420 0.78313 0.40812
H8U H -0.17420 0.83958 0.46771
C5U C -0.0706(3) 0.9194(2) 0.4234(3)
H9U H -0.08113 0.92862 0.47212
H10U H -0.02136 0.92853 0.41584
C6U C -0.1131(4) 0.8790(3) 0.2853(3)
H11U H -0.10223 0.87043 0.23597
C7U C -0.0866(2) 0.8444(3) 0.4066(2)
C8U C -0.1143(3) 0.9675(2) 0.3770(3)
H12U H -0.10347 1.01633 0.38777
C9U C -0.0698(3) 0.8313(3) 0.3310(2)
H13U H -0.02052 0.83977 0.32269
H14U H -0.07965 0.78291 0.31944
C10U C -0.2066(3) 0.8795(3) 0.3733(2)
H15U H -0.25637 0.87084 0.38160
Ge1W Ge -0.05670(2) 0.80390(3) 0.55284(2)
N1W N 0.04575(19) 0.79851(18) 0.54943(18)
C1W C 0.0969(3) 0.9528(3) 0.6965(3)
H1W H 0.12340 0.98381 0.72662
H2W H 0.04764 0.96166 0.70430
C2W C 0.1897(3) 0.9537(3) 0.6093(3)
H3W H 0.20005 0.96268 0.56051
H4W H 0.21810 0.98482 0.63748
C3W C 0.1896(3) 0.8655(3) 0.7016(3)
H5W H 0.20058 0.81727 0.71281
H6W H 0.21758 0.89540 0.73137
C4W C 0.1632(3) 0.8314(3) 0.5811(2)
H7W H 0.17420 0.78313 0.59188
H8W H 0.17420 0.83958 0.53229
C5W C 0.0706(3) 0.9194(2) 0.5766(3)
H9W H 0.08113 0.92862 0.52788
H10W H 0.02136 0.92853 0.58416
C6W C 0.1131(4) 0.8790(3) 0.7147(3)
H11W H 0.10223 0.87043 0.76402
C7W C 0.0866(2) 0.8444(3) 0.5934(2)
C8W C 0.1143(3) 0.9675(2) 0.6230(3)
H12W H 0.10347 1.01633 0.61223
C9W C 0.0698(3) 0.8313(3) 0.6690(2)
H13W H 0.02052 0.83977 0.67731
H14W H 0.07965 0.78291 0.68056
C10W C 0.2066(3) 0.8795(3) 0.6267(2)
H15W H 0.25637 0.87084 0.61840
C11D C 0.3926(3) 0.3053(3) 0.2985(3)
H16D H 0.44110 0.29738 0.28626
H17D H 0.36377 0.27583 0.26901
C12D C 0.4265(3) 0.3328(3) 0.4187(3)
H18D H 0.42042 0.32060 0.46755
H19D H 0.47515 0.32537 0.40660
C14D C 0.3809(3) 0.2867(3) 0.3742(3)
H20D H 0.39307 0.23760 0.38195
C11H C 0.2985(3) 0.3926(3) 0.3053(3)
H16H H 0.28626 0.44110 0.29738
H17H H 0.26901 0.36377 0.27583
C12H C 0.4187(3) 0.4265(3) 0.3328(3)
H18H H 0.46755 0.42042 0.32060
H19H H 0.40660 0.47515 0.32537
C14H C 0.3742(3) 0.3809(3) 0.2867(3)
H20H H 0.38195 0.39307 0.23760
Ge2B Ge 0.55457(2) 0.44543(2) 0.44543(2)
N2B N 0.54807(18) 0.45193(18) 0.54807(18)
C11B C 0.6947(3) 0.2985(3) 0.6074(3)
H16B H 0.70262 0.28626 0.55890
H17B H 0.72416 0.26901 0.63623
C12B C 0.6672(3) 0.4187(3) 0.5735(3)
H18B H 0.67939 0.46755 0.57958
H19B H 0.67463 0.40660 0.52485
C13B C 0.5919(2) 0.4081(2) 0.5919(2)
C14B C 0.7133(3) 0.3742(3) 0.6191(3)
H20B H 0.76240 0.38195 0.60693
C11G C 0.6074(3) 0.3053(3) 0.7015(3)
H16G H 0.55890 0.29738 0.71374
H17G H 0.63623 0.27583 0.73099
C12G C 0.5735(3) 0.3328(3) 0.5813(3)
H18G H 0.57958 0.32060 0.53245
H19G H 0.52485 0.32537 0.59340
C14G C 0.6191(3) 0.2867(3) 0.6258(3)
H20G H 0.60693 0.23760 0.61805
C11I C 0.7015(3) 0.3926(3) 0.6947(3)
H16I H 0.71374 0.44110 0.70262
H17I H 0.73099 0.36377 0.72416
C12I C 0.5813(3) 0.4265(3) 0.6672(3)
H18I H 0.53245 0.42042 0.67939
H19I H 0.59340 0.47515 0.67463
C14I C 0.6258(3) 0.3809(3) 0.7133(3)
H20I H 0.61805 0.39307 0.76240
Ge2C Ge 0.44543(2) 0.55457(2) 0.44543(2)
N2C N 0.45193(18) 0.54807(18) 0.54807(18)
C11C C 0.3053(3) 0.7015(3) 0.6074(3)
H16C H 0.29738 0.71374 0.55890
H17C H 0.27583 0.73099 0.63623
C12C C 0.3328(3) 0.5813(3) 0.5735(3)
H18C H 0.32060 0.53245 0.57958
H19C H 0.32537 0.59340 0.52485
C13C C 0.4081(2) 0.5919(2) 0.5919(2)
C14C C 0.2867(3) 0.6258(3) 0.6191(3)
H20C H 0.23760 0.61805 0.60693
C11E C 0.3926(3) 0.6947(3) 0.7015(3)
H16E H 0.44110 0.70262 0.71374
H17E H 0.36377 0.72416 0.73099
C12E C 0.4265(3) 0.6672(3) 0.5813(3)
H18E H 0.42042 0.67939 0.53245
H19E H 0.47515 0.67463 0.59340
C14E C 0.3809(3) 0.7133(3) 0.6258(3)
H20E H 0.39307 0.76240 0.61805
C11J C 0.2985(3) 0.6074(3) 0.6947(3)
H16J H 0.28626 0.55890 0.70262
H17J H 0.26901 0.63623 0.72416
C12J C 0.4187(3) 0.5735(3) 0.6672(3)
H18J H 0.46755 0.57958 0.67939
H19J H 0.40660 0.52485 0.67463
C14J C 0.3742(3) 0.6191(3) 0.7133(3)
H20J H 0.38195 0.60693 0.76240
Ge2A Ge 0.55457(2) 0.55457(2) 0.55457(2)
N2A N 0.54807(18) 0.54807(18) 0.45193(18)
C11F C 0.6074(3) 0.6947(3) 0.2985(3)
H16F H 0.55890 0.70262 0.28626
H17F H 0.63623 0.72416 0.26901
C12F C 0.5735(3) 0.6672(3) 0.4187(3)
H18F H 0.57958 0.67939 0.46755
H19F H 0.52485 0.67463 0.40660
C13A C 0.5919(2) 0.5919(2) 0.4081(2)
C14F C 0.6191(3) 0.7133(3) 0.3742(3)
H20F H 0.60693 0.76240 0.38195
C11K C 0.7015(3) 0.6074(3) 0.3053(3)
H16K H 0.71374 0.55890 0.29738
H17K H 0.73099 0.63623 0.27583
C12K C 0.5813(3) 0.5735(3) 0.3328(3)
H18K H 0.53245 0.57958 0.32060
H19K H 0.59340 0.52485 0.32537
C14K C 0.6258(3) 0.6191(3) 0.2867(3)
H20K H 0.61805 0.60693 0.23760
C11A C 0.6947(3) 0.7015(3) 0.3926(3)
H16A H 0.70262 0.71374 0.44110
H17A H 0.72416 0.73099 0.36377
C12A C 0.6672(3) 0.5813(3) 0.4265(3)
H18A H 0.67939 0.53245 0.42042
H19A H 0.67463 0.59340 0.47515
C14A C 0.7133(3) 0.6258(3) 0.3809(3)
H20A H 0.76240 0.61805 0.39307
#END

data_CSD_CIF_WABLOC
_audit_creation_date 2011-01-12
_audit_creation_method CSD-ConQuest-V1
_database_code_CSD WABLOC
_database_code_depnum_ccdc_archive 'CCDC 803021'
_chemical_formula_sum 'C16 H36 O4 Tl4'
_chemical_formula_moiety
;
C16 H36 O4 Tl4
;
_journal_coeditor_code "IUCr KJ2165"
_journal_coden_Cambridge 1370
_journal_volume 66
_journal_year 2010
_journal_page_first m1621
_journal_name_full 'Acta Crystallogr.,Sect.E:Struct.Rep.Online '
loop_
_publ_author_name
"F.Blasberg"
"H.-W.Lerner"
"M.Bolte"
_chemical_name_systematic
;
tetrakis(\m~3~-t-Butanolato)-tetra-thallium(i)
;
_cell_volume   5044.201
_exptl_crystal_colour 'colorless'
_exptl_crystal_density_diffrn 2.923
_exptl_crystal_description 'plate'
_diffrn_ambient_temperature 173
#These two values have been output from a single CSD field.
_refine_ls_R_factor_gt 0.0419
_refine_ls_wR_factor_gt 0.0419
_symmetry_cell_setting cubic
_symmetry_space_group_name_H-M 'P -4 3 n'
_symmetry_Int_Tables_number 218
loop_
_symmetry_equiv_pos_site_id
_symmetry_equiv_pos_as_xyz
1 x,y,z
2 1/2+y,1/2-x,1/2-z
3 -x,-y,z
4 1/2-y,1/2+x,1/2-z
5 x,-y,-z
6 1/2-y,1/2-x,1/2+z
7 -x,y,-z
8 1/2+y,1/2+x,1/2+z
9 z,x,y
10 1/2+x,1/2-z,1/2-y
11 -z,-x,y
12 1/2-x,1/2+z,1/2-y
13 z,-x,-y
14 1/2-x,1/2-z,1/2+y
15 -z,x,-y
16 1/2+x,1/2+z,1/2+y
17 y,z,x
18 1/2+z,1/2+y,1/2+x
19 1/2+z,1/2-y,1/2-x
20 1/2-z,1/2-y,1/2+x
21 1/2-z,1/2+y,1/2-x
22 y,-z,-x
23 -y,-z,x
24 -y,z,-x
_cell_length_a 17.1500(15)
_cell_length_b 17.1500(15)
_cell_length_c 17.1500(15)
_cell_angle_alpha 90
_cell_angle_beta 90
_cell_angle_gamma 90
_cell_formula_units_Z 8
loop_
_atom_type_symbol
_atom_type_radius_bond
C 0.68
H 0.23
O 0.68
Tl 1.45
loop_
_atom_site_label
_atom_site_type_symbol
_atom_site_fract_x
_atom_site_fract_y
_atom_site_fract_z
Tl1 Tl 0.66760(4) 0.91953(4) 0.57229(3)
O1 O 0.8130(7) 0.9310(7) 0.5635(7)
C1 C 0.8550(13) 0.8777(10) 0.6115(13)
C2 C 0.9386(12) 0.8950(18) 0.6078(19)
H1 H 0.94780 0.94850 0.62560
H2 H 0.95690 0.88950 0.55390
H3 H 0.96710 0.85860 0.64140
C3 C 0.8400(19) 0.7958(10) 0.583(2)
H4 H 0.78390 0.78530 0.58440
H5 H 0.86690 0.75880 0.61770
H6 H 0.85960 0.79010 0.53010
C4 C 0.8261(16) 0.8852(14) 0.6961(12)
H7 H 0.83680 0.93800 0.71530
H8 H 0.85330 0.84720 0.72900
H9 H 0.76980 0.87530 0.69800
Tl2 Tl 0.42129(4) 0.42129(4) 0.42129(4)
O2 O 0.5652(6) 0.4348(6) 0.4348(6)
C5 C 0.6118(13) 0.3882(13) 0.3882(13)
C6 C 0.6960(12) 0.3942(13) 0.4110(14)
H10 H 0.71250 0.44880 0.40860
H11 H 0.72770 0.36310 0.37510
H12 H 0.70270 0.37460 0.46430
Tl1K Tl 0.83240(4) 1.07229(4) 0.58047(3)
Tl1M Tl 0.83240(4) 0.92771(4) 0.41953(3)
Tl1D Tl 0.66760(4) 1.08047(4) 0.42771(3)
O1K O 0.6870(7) 1.0635(7) 0.5690(7)
O1M O 0.6870(7) 0.9365(7) 0.4310(7)
O1D O 0.8130(7) 1.0690(7) 0.4365(7)
C1K C 0.6450(13) 1.1115(10) 0.6223(13)
C1M C 0.6450(13) 0.8885(10) 0.3777(13)
C1D C 0.8550(13) 1.1223(10) 0.3885(13)
C2K C 0.5614(12) 1.1078(18) 0.6050(19)
C2M C 0.5614(12) 0.8922(18) 0.3950(19)
C2D C 0.9386(12) 1.1050(18) 0.3922(19)
H1K H 0.55220 1.12560 0.55150
H1M H 0.55220 0.87440 0.44850
H1D H 0.94780 1.05150 0.37440
H2K H 0.54310 1.05390 0.61050
H2M H 0.54310 0.94610 0.38950
H2D H 0.95690 1.11050 0.44610
H3K H 0.53290 1.14140 0.64140
H3M H 0.53290 0.85860 0.35860
H3D H 0.96710 1.14140 0.35860
C3K C 0.6600(19) 1.083(1) 0.7042(20)
C3M C 0.6600(19) 0.917(1) 0.2958(20)
C3D C 0.8400(19) 1.2042(10) 0.417(2)
H4K H 0.71610 1.08440 0.71470
H4M H 0.71610 0.91560 0.28530
H4D H 0.78390 1.21470 0.41560
H5K H 0.63310 1.11770 0.74120
H5M H 0.63310 0.88230 0.25880
H5D H 0.86690 1.24120 0.38230
H6K H 0.64040 1.03010 0.70990
H6M H 0.64040 0.96990 0.29010
H6D H 0.85960 1.20990 0.46990
C4K C 0.6739(16) 1.1961(14) 0.6148(12)
C4M C 0.6739(16) 0.8039(14) 0.3852(12)
C4D C 0.8261(16) 1.1148(14) 0.3039(12)
H7K H 0.66320 1.21530 0.56200
H7M H 0.66320 0.78470 0.43800
H7D H 0.83680 1.06200 0.28470
H8K H 0.64670 1.22900 0.65280
H8M H 0.64670 0.77100 0.34720
H8D H 0.85330 1.15280 0.27100
H9K H 0.73020 1.19800 0.62470
H9M H 0.73020 0.80200 0.37530
H9D H 0.76980 1.12470 0.30200
Tl2B Tl 0.57871(4) 0.57871(4) 0.42129(4)
Tl2D Tl 0.42129(4) 0.57871(4) 0.57871(4)
Tl2F Tl 0.57871(4) 0.42129(4) 0.57871(4)
O2B O 0.4348(6) 0.5652(6) 0.4348(6)
O2D O 0.5652(6) 0.5652(6) 0.5652(6)
O2F O 0.4348(6) 0.4348(6) 0.5652(6)
C5B C 0.3882(13) 0.6118(13) 0.3882(13)
C5D C 0.6118(13) 0.6118(13) 0.6118(13)
C5F C 0.3882(13) 0.3882(13) 0.6118(13)
C6J C 0.5890(12) 0.3040(13) 0.3942(14)
C6W C 0.6058(12) 0.4110(13) 0.3040(14)
C6B C 0.3040(12) 0.6058(13) 0.4110(14)
C6H C 0.4110(12) 0.6960(13) 0.3942(14)
C6U C 0.3942(12) 0.5890(13) 0.3040(14)
C6D C 0.6960(12) 0.6058(13) 0.5890(14)
C6N C 0.5890(12) 0.6960(13) 0.6058(14)
C6V C 0.6058(12) 0.5890(13) 0.6960(14)
C6F C 0.3040(12) 0.3942(13) 0.5890(14)
C6L C 0.4110(12) 0.3040(13) 0.6058(14)
C6P C 0.3942(12) 0.4110(13) 0.6960(14)
H10J H 0.59140 0.28750 0.44880
H10W H 0.55120 0.40860 0.28750
H10B H 0.28750 0.55120 0.40860
H10H H 0.40860 0.71250 0.44880
H10U H 0.44880 0.59140 0.28750
H10D H 0.71250 0.55120 0.59140
H10N H 0.59140 0.71250 0.55120
H10V H 0.55120 0.59140 0.71250
H10F H 0.28750 0.44880 0.59140
H10L H 0.40860 0.28750 0.55120
H10P H 0.44880 0.40860 0.71250
H11J H 0.62490 0.27230 0.36310
H11W H 0.63690 0.37510 0.27230
H11B H 0.27230 0.63690 0.37510
H11H H 0.37510 0.72770 0.36310
H11U H 0.36310 0.62490 0.27230
H11D H 0.72770 0.63690 0.62490
H11N H 0.62490 0.72770 0.63690
H11V H 0.63690 0.62490 0.72770
H11F H 0.27230 0.36310 0.62490
H11L H 0.37510 0.27230 0.63690
H11P H 0.36310 0.37510 0.72770
H12J H 0.53570 0.29730 0.37460
H12W H 0.62540 0.46430 0.29730
H12B H 0.29730 0.62540 0.46430
H12H H 0.46430 0.70270 0.37460
H12U H 0.37460 0.53570 0.29730
H12D H 0.70270 0.62540 0.53570
H12N H 0.53570 0.70270 0.62540
H12V H 0.62540 0.53570 0.70270
H12F H 0.29730 0.37460 0.53570
H12L H 0.46430 0.29730 0.62540
H12P H 0.37460 0.46430 0.70270
#END

data_CSD_CIF_YAFTIL02
_audit_creation_date 2018-07-24
_audit_creation_method CSD-ConQuest-V1
_database_code_CSD YAFTIL02
_database_code_depnum_ccdc_archive 'CCDC 1843299'
_chemical_formula_sum 'C17 H36 Cl9 N1 Si3'
_chemical_formula_moiety
;
C16 H36 N1 1+,C1 Cl9 Si3 1-
;
_journal_coden_Cambridge 4
_journal_volume 140
_journal_year 2018
_journal_page_first 9696
_journal_name_full 'J.Am.Chem.Soc. '
loop_
_publ_author_name
"I.Georg"
"Julian Teichmann"
"M.Bursch"
"J.Tillmann"
"B.Endeward"
"M.Bolte"
"H.-W.Lerner"
"S.Grimme"
"M.Wagner"
_chemical_name_systematic
;
tetra-n-butylammonium tris(trichlorosilyl)methanide
;
_cell_volume   6336.144
_exptl_crystal_colour 'colorless'
_exptl_crystal_density_diffrn 1.379
_exptl_special_details
;
cubic P-43n polymorph

;
_exptl_crystal_description 'block'
_diffrn_ambient_temperature 173
#These two values have been output from a single CSD field.
_refine_ls_R_factor_gt 0.0399
_refine_ls_wR_factor_gt 0.0399
_symmetry_cell_setting cubic
_symmetry_space_group_name_H-M 'P -4 3 n'
_symmetry_Int_Tables_number 218
loop_
_symmetry_equiv_pos_site_id
_symmetry_equiv_pos_as_xyz
1 x,y,z
2 -x,-y,z
3 -x,y,-z
4 x,-y,-z
5 z,x,y
6 z,-x,-y
7 -z,-x,y
8 -z,x,-y
9 y,z,x
10 -y,z,-x
11 y,-z,-x
12 -y,-z,x
13 1/2+y,1/2+x,1/2+z
14 1/2-y,1/2-x,1/2+z
15 1/2+y,1/2-x,1/2-z
16 1/2-y,1/2+x,1/2-z
17 1/2+x,1/2+z,1/2+y
18 1/2-x,1/2+z,1/2-y
19 1/2-x,1/2-z,1/2+y
20 1/2+x,1/2-z,1/2-y
21 1/2+z,1/2+y,1/2+x
22 1/2+z,1/2-y,1/2-x
23 1/2-z,1/2+y,1/2-x
24 1/2-z,1/2-y,1/2+x
_cell_length_a 18.5044(8)
_cell_length_b 18.5044(8)
_cell_length_c 18.5044(8)
_cell_angle_alpha 90
_cell_angle_beta 90
_cell_angle_gamma 90
_cell_formula_units_Z 8
loop_
_atom_type_symbol
_atom_type_radius_bond
C 0.68
H 0.23
Cl 0.99
N 0.68
Si 1.20
loop_
_atom_site_label
_atom_site_type_symbol
_atom_site_fract_x
_atom_site_fract_y
_atom_site_fract_z
C1 C 0.1729(2) 0.1729(2) 0.8271(2)
Si1 Si 0.25075(7) 0.16062(7) 0.88110(7)
Cl1 Cl 0.25571(7) 0.23423(7) 0.96419(7)
Cl2 Cl 0.26059(8) 0.06247(7) 0.93124(7)
Cl3 Cl 0.34761(7) 0.17243(8) 0.82719(8)
N1 N 0.50000 0.25000 1.00000
C2 C 0.5616(2) 0.2031(2) 0.9721(2)
H1 H 0.59850 0.23530 0.95070
H2 H 0.58410 0.17870 1.01410
C3 C 0.5426(2) 0.1459(3) 0.9167(2)
H3 H 0.51110 0.10890 0.93910
H4 H 0.51570 0.16830 0.87620
C4 C 0.6106(3) 0.1105(3) 0.8882(3)
H5 H 0.64140 0.14780 0.86530
H6 H 0.63790 0.08960 0.92910
C5 C 0.5949(3) 0.0520(3) 0.8339(3)
H7 H 0.64040 0.02950 0.81860
H8 H 0.57050 0.07290 0.79190
H9 H 0.56380 0.01530 0.85610
N2? N 1.00000 0.00000 1.00000
C6? C 0.9426(18) 0.0152(10) 0.9436(19)
H10? H 0.89880 -0.01100 0.95950
H11? H 0.95990 -0.00980 0.89960
C7? C 0.9204(6) 0.0796(6) 0.9204(6)
H12? H 0.96400 0.10440 0.90100
H13? H 0.90720 0.10610 0.96480
C8? C 0.865(3) 0.0973(11) 0.867(3)
H14? H 0.82110 0.07590 0.88910
H15? H 0.87600 0.06650 0.82470
C9? C 0.8398(7) 0.1602(7) 0.8398(7)
H16? H 0.82690 0.19540 0.87720
H17? H 0.87890 0.18010 0.80980
H18? H 0.79760 0.15070 0.80920
Si1G Si 0.11890(7) 0.25075(7) 0.83938(7)
Cl1G Cl 0.03581(7) 0.25571(7) 0.76577(7)
Cl2G Cl 0.06876(8) 0.26059(7) 0.93753(7)
Cl3G Cl 0.17281(7) 0.34761(8) 0.82757(8)
Si1J Si 0.16062(7) 0.11890(7) 0.74925(7)
Cl1J Cl 0.23423(7) 0.03581(7) 0.74429(7)
Cl2J Cl 0.06247(8) 0.06876(7) 0.73941(7)
Cl3J Cl 0.17243(7) 0.17281(8) 0.65239(8)
C2B C 0.4384(2) 0.2031(2) 1.0279(2)
H1B H 0.40150 0.23530 1.04930
H2B H 0.41590 0.17870 0.98590
C3B C 0.4574(2) 0.1459(3) 1.0833(2)
H3B H 0.48890 0.10890 1.06090
H4B H 0.48430 0.16830 1.12380
C4B C 0.3894(3) 0.1105(3) 1.1118(3)
H5B H 0.35860 0.14780 1.13470
H6B H 0.36210 0.08960 1.07090
C5B C 0.4051(3) 0.0520(3) 1.1661(3)
H7B H 0.35960 0.02950 1.18140
H8B H 0.42950 0.07290 1.20810
H9B H 0.43620 0.01530 1.14390
C2U C 0.4721(2) 0.2969(2) 0.9384(2)
H1U H 0.45070 0.26470 0.90150
H2U H 0.51410 0.32130 0.91590
C3U C 0.4167(2) 0.3541(3) 0.9574(2)
H3U H 0.43910 0.39110 0.98890
H4U H 0.37620 0.33170 0.98430
C4U C 0.3882(3) 0.3895(3) 0.8894(3)
H5U H 0.36530 0.35220 0.85860
H6U H 0.42910 0.41040 0.86210
C5U C 0.3339(3) 0.4480(3) 0.9051(3)
H7U H 0.31860 0.47050 0.85960
H8U H 0.29190 0.42710 0.92950
H9U H 0.35610 0.48470 0.93620
C2W C 0.5279(2) 0.2969(2) 1.0616(2)
H1W H 0.54930 0.26470 1.09850
H2W H 0.48590 0.32130 1.08410
C3W C 0.5833(2) 0.3541(3) 1.0426(2)
H3W H 0.56090 0.39110 1.01110
H4W H 0.62380 0.33170 1.01570
C4W C 0.6118(3) 0.3895(3) 1.1106(3)
H5W H 0.63470 0.35220 1.14140
H6W H 0.57090 0.41040 1.13790
C5W C 0.6661(3) 0.4480(3) 1.0949(3)
H7W H 0.68140 0.47050 1.14040
H8W H 0.70810 0.42710 1.07050
H9W H 0.64390 0.48470 1.06380
#END

data_CSD_CIF_YEBKUL
_audit_creation_date 1994-09-21
_audit_creation_method CSD-ConQuest-V1
_database_code_CSD YEBKUL
_database_code_depnum_ccdc_archive 'CCDC 1300464'
_chemical_formula_sum 'C16 H48 Ge4 N4 S10'
_chemical_formula_moiety
;
4(C4 H12 N1 1+),Ge4 S10 4-
;
_journal_coden_Cambridge 4
_journal_volume 116
_journal_year 1994
_journal_page_first 807
_journal_name_full 'J.Am.Chem.Soc. '
loop_
_publ_author_name
"O.M.Yaghi"
"Z.Sun"
"D.A.Richardson"
"T.L.Groy"
_chemical_name_systematic
;
tetrakis(Tetramethylammonium) 
hexakis(\m~2~-sulfido)-tetrakis(thioxo-germanium)
;
_cell_volume   7476.646
_exptl_crystal_colour 'colorless'
_exptl_crystal_density_diffrn 1.613
_diffrn_ambient_temperature ?
_diffrn_special_details
;
The study was carried out at room temperature,in the range 283-303K

;
#These two values have been output from a single CSD field.
_refine_ls_R_factor_gt 0.0451
_refine_ls_wR_factor_gt 0.0451
_symmetry_cell_setting cubic
_symmetry_space_group_name_H-M 'P -4 3 n'
_symmetry_Int_Tables_number 218
loop_
_symmetry_equiv_pos_site_id
_symmetry_equiv_pos_as_xyz
1 x,y,z
2 z,x,y
3 y,z,x
4 x,-y,-z
5 z,-x,-y
6 y,-z,-x
7 -x,y,-z
8 -z,x,-y
9 -y,z,-x
10 -x,-y,z
11 -z,-x,y
12 -y,-z,x
13 1/2+y,1/2+x,1/2+z
14 1/2+x,1/2+z,1/2+y
15 1/2+z,1/2+y,1/2+x
16 1/2-y,1/2+x,1/2-z
17 1/2-x,1/2+z,1/2-y
18 1/2-z,1/2+y,1/2-x
19 1/2+y,1/2-x,1/2-z
20 1/2+x,1/2-z,1/2-y
21 1/2+z,1/2-y,1/2-x
22 1/2-y,1/2-x,1/2+z
23 1/2-x,1/2-z,1/2+y
24 1/2-z,1/2-y,1/2+x
_cell_length_a 19.554(2)
_cell_length_b 19.554(2)
_cell_length_c 19.554(2)
_cell_angle_alpha 90
_cell_angle_beta 90
_cell_angle_gamma 90
_cell_formula_units_Z 8
loop_
_atom_type_symbol
_atom_type_radius_bond
C 0.68
H 0.23
Ge 1.17
N 0.68
S 1.02
loop_
_atom_site_label
_atom_site_type_symbol
_atom_site_fract_x
_atom_site_fract_y
_atom_site_fract_z
Ge1 Ge 0.4307(1) 0.3158(1) 0.0621(1)
S1 S 0.4928(2) 0.2503(2) 0.1321(2)
S2 S 0.50000 0.3830(3) 0.00000
S3 S 0.3639(2) 0.3759(2) 0.1215(3)
Ge2 Ge 0.0660(1) 0.0660(1) 0.0660(1)
S4 S 0.00000 0.00000 0.1333(3)
S5 S 0.1294(3) 0.1294(3) 0.1294(3)
N1 N 0.6523(6) 0.4198(7) 0.1611(6)
C1 C 0.7019(8) 0.4602(9) 0.2048(9)
C2 C 0.667(1) 0.4365(9) 0.0871(8)
C3 C 0.6628(11) 0.3447(8) 0.1774(9)
C4 C 0.5815(7) 0.4419(9) 0.1783(9)
H1 H 0.69480 0.50810 0.19750
H2 H 0.74760 0.44800 0.19160
H3 H 0.69640 0.44960 0.25230
H4 H 0.63610 0.41030 0.05960
H5 H 0.71270 0.42240 0.07620
H6 H 0.66130 0.48440 0.07830
H7 H 0.70760 0.32990 0.16420
H8 H 0.63010 0.32070 0.14990
H9 H 0.65500 0.33560 0.22500
H10 H 0.55270 0.42090 0.14470
H11 H 0.57740 0.49070 0.17650
H12 H 0.56930 0.42670 0.22330
N2 N 0.8363(7) 0.1637(7) 0.1637(7)
C5 C 0.9095(8) 0.1762(11) 0.1775(12)
C6 C 0.7937(8) 0.2063(8) 0.2063(8)
H13 H 0.92030 0.22350 0.17030
H14 H 0.93650 0.14880 0.14720
H15 H 0.91950 0.16410 0.22390
H16 H 0.80380 0.19820 0.25350
S1W S 0.3679(2) 0.2497(2) -0.0072(2)
Ge1T Ge 0.5621(1) 0.1842(1) 0.0693(1)
Ge1F Ge 0.5693(1) 0.3158(1) -0.0621(1)
Ge1W Ge 0.4379(1) 0.1842(1) -0.0693(1)
S1T S 0.6321(2) 0.2497(2) 0.0072(2)
S2T S 0.50000 0.1170(3) 0.00000
S3T S 0.6215(2) 0.1241(2) 0.1361(3)
S1F S 0.5072(2) 0.2503(2) -0.1321(2)
S3F S 0.6361(2) 0.3759(2) -0.1215(3)
S3W S 0.3785(2) 0.1241(2) -0.1361(3)
S4A S 0.13330 0.00000 0.0000(3)
S4B S 0.00000 0.13330 0.0000(3)
Ge2I Ge -0.0660(1) -0.0660(1) 0.0660(1)
Ge2C Ge 0.0660(1) -0.0660(1) -0.0660(1)
Ge2F Ge -0.0660(1) 0.0660(1) -0.0660(1)
S4E S 0.00000 -0.13330 0.0000(3)
S4G S -0.13330 0.00000 0.0000(3)
S5I S -0.1294(3) -0.1294(3) 0.1294(3)
S4C S 0.00000 0.00000 -0.1333(3)
S5C S 0.1294(3) -0.1294(3) -0.1294(3)
S5F S -0.1294(3) 0.1294(3) -0.1294(3)
C5H C 0.8238(8) 0.1775(11) 0.0905(12)
C5J C 0.8225(8) 0.0905(11) 0.1762(12)
H16H H 0.80180 0.25350 0.19620
H16J H 0.74650 0.19620 0.19820
H13H H 0.77650 0.17030 0.07970
H14H H 0.85120 0.14720 0.06350
H15H H 0.83590 0.22390 0.08050
H13J H 0.82970 0.07970 0.22350
H14J H 0.85280 0.06350 0.14880
H15J H 0.77610 0.08050 0.16410
#END

data_CSD_CIF_ZOHQAQ
_audit_creation_date 2014-06-16
_audit_creation_method CSD-ConQuest-V1
_database_code_CSD ZOHQAQ
_database_code_depnum_ccdc_archive 'CCDC 975300'
_chemical_formula_sum 'C28 H52 Cu4 I4 N4'
_chemical_formula_moiety
;
C28 H52 Cu4 I4 N4
;
_journal_coden_Cambridge 222
_journal_volume 43
_journal_year 2014
_journal_page_first 9448
_journal_name_full 'Dalton Trans. '
loop_
_publ_author_name
"P.P.Mazzeo"
"L.Maini"
"A.Petrolati"
"V.Fattori"
"K.Shankland"
"D.Braga"
_chemical_name_systematic
;
tetrakis(\m-iodo)-tetrakis(quinuclidine)-tetra-copper
;
_cell_volume   7678.136
_exptl_crystal_colour 'colorless'
_exptl_crystal_density_diffrn 2.087
_exptl_crystal_description 'rod'
_diffrn_ambient_temperature 293
#These two values have been output from a single CSD field.
_refine_ls_R_factor_gt 0.0489
_refine_ls_wR_factor_gt 0.0489
_symmetry_cell_setting cubic
_symmetry_space_group_name_H-M 'P -4 3 n'
_symmetry_Int_Tables_number 218
loop_
_symmetry_equiv_pos_site_id
_symmetry_equiv_pos_as_xyz
1 x,y,z
2 x,-y,-z
3 -x,-y,z
4 -x,y,-z
5 1/2+y,1/2-x,1/2-z
6 1/2-y,1/2-x,1/2+z
7 1/2-y,1/2+x,1/2-z
8 1/2+y,1/2+x,1/2+z
9 y,z,x
10 -y,-z,x
11 y,-z,-x
12 -y,z,-x
13 1/2+z,1/2-y,1/2-x
14 1/2+z,1/2+y,1/2+x
15 1/2-z,1/2+y,1/2-x
16 1/2-z,1/2-y,1/2+x
17 z,x,y
18 -z,x,-y
19 -z,-x,y
20 z,-x,-y
21 1/2+x,1/2+z,1/2+y
22 1/2+x,1/2-z,1/2-y
23 1/2-x,1/2+z,1/2-y
24 1/2-x,1/2-z,1/2+y
_cell_length_a 19.7281(6)
_cell_length_b 19.7281(6)
_cell_length_c 19.7281(6)
_cell_angle_alpha 90
_cell_angle_beta 90
_cell_angle_gamma 90
_cell_formula_units_Z 8
loop_
_atom_type_symbol
_atom_type_radius_bond
C 0.68
H 0.23
Cu 1.32
I 1.40
N 0.68
loop_
_atom_site_label
_atom_site_type_symbol
_atom_site_fract_x
_atom_site_fract_y
_atom_site_fract_z
C1 C 0.5938(9) 0.8521(9) 0.8215(6)
H1 H 0.54640 0.86310 0.81410
H2 H 0.60030 0.80490 0.80930
C2 C 0.6386(12) 0.8975(12) 0.7744(8)
H3 H 0.66530 0.86930 0.74420
H4 H 0.61010 0.92690 0.74710
C3 C 0.6842(9) 0.9391(8) 0.8186(9)
H5 H 0.71370 0.96780 0.79090
C4 C 0.5973(8) 0.9320(6) 0.9078(8)
H6 H 0.60070 0.93900 0.95640
H7 H 0.55180 0.94410 0.89380
C5 C 0.6504(12) 0.9793(8) 0.8702(11)
H8 H 0.62730 1.01740 0.84950
H9 H 0.68330 0.99670 0.90240
C6 C 0.6825(6) 0.8485(7) 0.9054(10)
H10 H 0.69320 0.80110 0.89820
H11 H 0.69370 0.86020 0.95180
C7 C 0.7227(12) 0.8930(12) 0.8560(12)
H12 H 0.75640 0.91800 0.88160
H13 H 0.74670 0.86360 0.82470
Cu1 Cu 0.54853(7) 0.79875(7) 0.95281(6)
I1 I 0.58070(3) 0.67071(4) 0.91966(4)
N1 N 0.6096(5) 0.8609(6) 0.8924(6)
C8 C 0.8972(9) 1.1794(7) 0.9083(10)
H14 H 0.94360 1.19330 0.89990
H15 H 0.88860 1.18410 0.95650
C9 C 0.8490(9) 1.2273(7) 0.8692(7)
H16 H 0.81550 1.24630 0.89970
H17 H 0.87440 1.26420 0.84880
C10 C 0.8148(5) 1.1852(5) 0.8148(5)
H18 H 0.78610 1.21390 0.78610
Cu2 Cu 0.95116(7) 1.04884(7) 0.95116(7)
I2 I 0.92014(3) 0.92014(3) 0.92014(3)
N2 N 0.8899(7) 1.1101(7) 0.8899(7)
C1C C 0.4062(9) 0.8521(9) 1.1785(6)
H1C H 0.45360 0.86310 1.18590
H2C H 0.39970 0.80490 1.19070
C2C C 0.3614(12) 0.8975(12) 1.2256(8)
H3C H 0.33470 0.86930 1.25580
H4C H 0.38990 0.92690 1.25290
C3C C 0.3158(9) 0.9391(8) 1.1814(9)
H5C H 0.28630 0.96780 1.20910
C4C C 0.4027(8) 0.9320(6) 1.0922(8)
H6C H 0.39930 0.93900 1.04360
H7C H 0.44820 0.94410 1.10620
C5C C 0.3496(12) 0.9793(8) 1.1298(11)
H8C H 0.37270 1.01740 1.15050
H9C H 0.31670 0.99670 1.09760
C6C C 0.3175(6) 0.8485(7) 1.0946(10)
H10C H 0.30680 0.80110 1.10180
H11C H 0.30630 0.86020 1.04820
C7C C 0.2773(12) 0.8930(12) 1.1440(12)
H12C H 0.24360 0.91800 1.11840
H13C H 0.25330 0.86360 1.17530
Cu1C Cu 0.45147(7) 0.79875(7) 1.04719(6)
I1C I 0.41930(3) 0.67071(4) 1.08034(4)
N1C N 0.3904(5) 0.8609(6) 1.1076(6)
C1L C 0.3215(9) 0.6479(9) 0.9062(6)
H1L H 0.31410 0.63690 0.95360
H2L H 0.30930 0.69510 0.89970
C2L C 0.2744(12) 0.6025(12) 0.8614(8)
H3L H 0.24420 0.63070 0.83470
H4L H 0.24710 0.57310 0.88990
C3L C 0.3186(9) 0.5609(8) 0.8158(9)
H5L H 0.29090 0.53220 0.78630
C4L C 0.4078(8) 0.5680(6) 0.9027(8)
H6L H 0.45640 0.56100 0.89930
H7L H 0.39380 0.55590 0.94820
C5L C 0.3702(12) 0.5207(8) 0.8496(11)
H8L H 0.34950 0.48260 0.87270
H9L H 0.40240 0.50330 0.81670
C6L C 0.4054(6) 0.6515(7) 0.8175(10)
H10L H 0.39820 0.69890 0.80680
H11L H 0.45180 0.63980 0.80630
C7L C 0.3560(12) 0.6070(12) 0.7773(12)
H12L H 0.38160 0.58200 0.74360
H13L H 0.32470 0.63640 0.75330
Cu1L Cu 0.45281(7) 0.70125(7) 0.95147(6)
I1L I 0.41966(3) 0.82929(4) 0.91930(4)
N1L N 0.3924(5) 0.6391(6) 0.8904(6)
C1O C 0.6785(9) 0.6479(9) 1.0938(6)
H1O H 0.68590 0.63690 1.04640
H2O H 0.69070 0.69510 1.10030
C2O C 0.7256(12) 0.6025(12) 1.1386(8)
H3O H 0.75580 0.63070 1.16530
H4O H 0.75290 0.57310 1.11010
C3O C 0.6814(9) 0.5609(8) 1.1842(9)
H5O H 0.70910 0.53220 1.21370
C4O C 0.5922(8) 0.5680(6) 1.0973(8)
H6O H 0.54360 0.56100 1.10070
H7O H 0.60620 0.55590 1.05180
C5O C 0.6298(12) 0.5207(8) 1.1504(11)
H8O H 0.65050 0.48260 1.12730
H9O H 0.59760 0.50330 1.18330
C6O C 0.5946(6) 0.6515(7) 1.1825(10)
H10O H 0.60180 0.69890 1.19320
H11O H 0.54820 0.63980 1.19370
C7O C 0.6440(12) 0.6070(12) 1.2227(12)
H12O H 0.61840 0.58200 1.25640
H13O H 0.67530 0.63640 1.24670
Cu1O Cu 0.54719(7) 0.70125(7) 1.04853(6)
I1O I 0.58034(3) 0.82929(4) 1.08070(4)
N1O N 0.6076(5) 0.6391(6) 1.1096(6)
C8I C 0.8206(9) 1.0917(7) 0.8972(10)
H14I H 0.80670 1.10010 0.94360
H15I H 0.81590 1.04350 0.88860
C9I C 0.7727(9) 1.1308(7) 0.8490(7)
H16I H 0.75370 1.10030 0.81550
H17I H 0.73580 1.15120 0.87440
C8S C 0.9083(9) 1.1028(7) 0.8206(10)
H14S H 0.89990 1.05640 0.80670
H15S H 0.95650 1.11140 0.81590
C9S C 0.8692(9) 1.1510(7) 0.7727(7)
H16S H 0.89970 1.18450 0.75370
H17S H 0.84880 1.12560 0.73580
C8A C 0.8972(9) 0.8206(7) 1.0917(10)
H14A H 0.94360 0.80670 1.10010
H15A H 0.88860 0.81590 1.04350
C9A C 0.8490(9) 0.7727(7) 1.1308(7)
H16A H 0.81550 0.75370 1.10030
H17A H 0.87440 0.73580 1.15120
C10A C 0.8148(5) 0.8148(5) 1.1852(5)
H18A H 0.78610 0.78610 1.21390
Cu2A Cu 0.95116(7) 0.95116(7) 1.04884(7)
I2A I 0.92014(3) 1.07986(3) 1.07986(3)
N2A N 0.8899(7) 0.8899(7) 1.1101(7)
C8K C 0.8206(9) 0.9083(7) 1.1028(10)
H14K H 0.80670 0.89990 1.05640
H15K H 0.81590 0.95650 1.11140
C9K C 0.7727(9) 0.8692(7) 1.1510(7)
H16K H 0.75370 0.89970 1.18450
H17K H 0.73580 0.84880 1.12560
C8P C 0.9083(9) 0.8972(7) 1.1794(10)
H14P H 0.89990 0.94360 1.19330
H15P H 0.95650 0.88860 1.18410
C9P C 0.8692(9) 0.8490(7) 1.2273(7)
H16P H 0.89970 0.81550 1.24630
H17P H 0.84880 0.87440 1.26420
C8B C 1.1028(9) 0.8206(7) 0.9083(10)
H14B H 1.05640 0.80670 0.89990
H15B H 1.11140 0.81590 0.95650
C9B C 1.1510(9) 0.7727(7) 0.8692(7)
H16B H 1.18450 0.75370 0.89970
H17B H 1.12560 0.73580 0.84880
C10B C 1.1852(5) 0.8148(5) 0.8148(5)
H18B H 1.21390 0.78610 0.78610
Cu2B Cu 1.04884(7) 0.95116(7) 0.95116(7)
I2B I 1.07986(3) 1.07986(3) 0.92014(3)
N2B N 1.1101(7) 0.8899(7) 0.8899(7)
C8H C 1.1794(9) 0.9083(7) 0.8972(10)
H14H H 1.19330 0.89990 0.94360
H15H H 1.18410 0.95650 0.88860
C9H C 1.2273(9) 0.8692(7) 0.8490(7)
H16H H 1.24630 0.89970 0.81550
H17H H 1.26420 0.84880 0.87440
C8Q C 1.0917(9) 0.8972(7) 0.8206(10)
H14Q H 1.10010 0.94360 0.80670
H15Q H 1.04350 0.88860 0.81590
C9Q C 1.1308(9) 0.8490(7) 0.7727(7)
H16Q H 1.10030 0.81550 0.75370
H17Q H 1.15120 0.87440 0.73580
C8C C 1.1028(9) 1.1794(7) 1.0917(10)
H14C H 1.05640 1.19330 1.10010
H15C H 1.11140 1.18410 1.04350
C9C C 1.1510(9) 1.2273(7) 1.1308(7)
H16C H 1.18450 1.24630 1.10030
H17C H 1.12560 1.26420 1.15120
C10C C 1.1852(5) 1.1852(5) 1.1852(5)
H18C H 1.21390 1.21390 1.21390
Cu2C Cu 1.04884(7) 1.04884(7) 1.04884(7)
I2C I 1.07986(3) 0.92014(3) 1.07986(3)
N2C N 1.1101(7) 1.1101(7) 1.1101(7)
C8J C 1.1794(9) 1.0917(7) 1.1028(10)
H14J H 1.19330 1.10010 1.05640
H15J H 1.18410 1.04350 1.11140
C9J C 1.2273(9) 1.1308(7) 1.1510(7)
H16J H 1.24630 1.10030 1.18450
H17J H 1.26420 1.15120 1.12560
C8R C 1.0917(9) 1.1028(7) 1.1794(10)
H14R H 1.10010 1.05640 1.19330
H15R H 1.04350 1.11140 1.18410
C9R C 1.1308(9) 1.1510(7) 1.2273(7)
H16R H 1.10030 1.18450 1.24630
H17R H 1.15120 1.12560 1.26420
#END
