
#######################################################################
#
#                 Cambridge Crystallographic Data Centre
#                                CCDC
#
#######################################################################
#
# If this CIF has been generated from an entry in the Cambridge
# Structural Database, then it will include bibliographic, chemical,
# crystal, experimental, refinement or atomic coordinate data resulting
# from the CCDC's data processing and validation procedures.
#
#######################################################################

data_CSD_CIF_AMECUA
_audit_creation_date 1980-12-11
_audit_creation_method CSD-ConQuest-V1
_database_code_CSD AMECUA
_database_code_depnum_ccdc_archive 'CCDC 1102570'
_chemical_formula_sum 'C6 H21 Cl2 Cu1 N5 O8'
_chemical_formula_moiety
;
C6 H21 Cu1 N5 2+,2(Cl1 O4 1-)
;
_journal_coden_Cambridge 186
_journal_year 1980
_journal_page_first 1342
_journal_name_full 'J.Chem.Soc.,Dalton Trans. '
loop_
_publ_author_name
"M.Duggan"
"N.Ray"
"B.Hathaway"
"G.Tomlinson"
"P.Brint"
"K.Pelin"
_chemical_name_systematic
;
Ammine-(tris(2-aminoethyl)amine)-copper(ii) diperchlorate
;
_cell_volume   1571.415
_exptl_crystal_density_diffrn 1.798
_diffrn_ambient_temperature ?
_diffrn_special_details
;
The study was carried out at room temperature,in the range 283-303K

;
#These two values have been output from a single CSD field.
_refine_ls_R_factor_gt 0.0383
_refine_ls_wR_factor_gt 0.0383
_symmetry_cell_setting cubic
_symmetry_space_group_name_H-M 'P 21 3'
_symmetry_Int_Tables_number 198
loop_
_symmetry_equiv_pos_site_id
_symmetry_equiv_pos_as_xyz
1 x,y,z
2 z,x,y
3 y,z,x
4 1/2+x,1/2-y,-z
5 1/2+z,1/2-x,-y
6 1/2+y,1/2-z,-x
7 -x,1/2+y,1/2-z
8 -z,1/2+x,1/2-y
9 -y,1/2+z,1/2-x
10 1/2-x,-y,1/2+z
11 1/2-z,-x,1/2+y
12 1/2-y,-z,1/2+x
_cell_length_a 11.626(3)
_cell_length_b 11.626(3)
_cell_length_c 11.626(3)
_cell_angle_alpha 90
_cell_angle_beta 90
_cell_angle_gamma 90
_cell_formula_units_Z 4
loop_
_atom_type_symbol
_atom_type_radius_bond
C 0.68
Cl 0.99
Cu 1.52
N 0.68
O 0.68
loop_
_atom_site_label
_atom_site_type_symbol
_atom_site_fract_x
_atom_site_fract_y
_atom_site_fract_z
Cu1 Cu 0.19550 0.19550 0.19550
N1 N 0.09510 0.09510 0.09510
N2 N 0.29690 0.29690 0.29690
N3 N 0.30120 0.06210 0.25100
C1 C 0.36780 0.21840 0.36890
C2 C 0.39970 0.11270 0.30540
Cl1 Cl 0.54350 0.54350 0.54350
O1 O 0.47290 0.47290 0.47290
O2 O 0.51510 0.52570 0.65880
Cl2 Cl 0.76050 0.76050 0.76050
O3 O 0.83100 0.83100 0.83100
O4 O 0.67680 0.83100 0.70230
N3A N 0.25100 0.30120 0.06210
N3B N 0.06210 0.25100 0.30120
C1A C 0.36890 0.36780 0.21840
C1B C 0.21840 0.36890 0.36780
C2A C 0.30540 0.39970 0.11270
C2B C 0.11270 0.30540 0.39970
O2A O 0.65880 0.51510 0.52570
O2B O 0.52570 0.65880 0.51510
O4A O 0.70230 0.67680 0.83100
O4B O 0.83100 0.70230 0.67680
#END

data_CSD_CIF_ARUNOT
_audit_creation_date 2021-04-22
_audit_creation_method CSD-ConQuest-V1
_database_code_CSD ARUNOT
_database_code_depnum_ccdc_archive 'CCDC 1979773'
_chemical_formula_sum 'C12 H36 Cl6 Cu2 Mo3 N6 S4'
_chemical_formula_moiety
;
C12 H36 Cl4 Cu1 Mo3 N6 S4 1+,Cl2 Cu1 1-
;
_journal_coden_Cambridge 1499
_journal_volume 11
_journal_year 2021
_journal_page_first 608
_journal_name_full 'ACS Catalysis '
loop_
_publ_author_name
"E.Guillamon"
"M.Oliva"
"Juan Andres"
"R.Llusar"
"E.Pedrajas"
"V.S.Safont"
"A.G.Algarra"
"M.G.Basallote"
_chemical_name_systematic
;
tetrakis(\m-sulfido)-tetrachloro-tris(N^1^,N^2^-dimethylethane-1,2-diamine)-co
pper-tri-molybdenum dichloro-copper
;
_cell_volume   3649.348
_exptl_crystal_colour 'metallic dark brown'
_exptl_crystal_density_diffrn 1.857
_exptl_special_details
;
We calculate void space in the structure

;
_exptl_crystal_description 'prism'
_diffrn_ambient_temperature 270
_diffrn_special_details
;
twin

;
#These two values have been output from a single CSD field.
_refine_ls_R_factor_gt 0.0409
_refine_ls_wR_factor_gt 0.0409
_symmetry_cell_setting cubic
_symmetry_space_group_name_H-M 'P 21 3'
_symmetry_Int_Tables_number 198
loop_
_symmetry_equiv_pos_site_id
_symmetry_equiv_pos_as_xyz
1 x,y,z
2 1/2-x,-y,1/2+z
3 1/2+x,1/2-y,-z
4 z,x,y
5 -x,1/2+y,1/2-z
6 1/2+z,1/2-x,-y
7 1/2-z,-x,1/2+y
8 -z,1/2+x,1/2-y
9 y,z,x
10 -y,1/2+z,1/2-x
11 1/2-y,-z,1/2+x
12 1/2+y,1/2-z,-x
_cell_length_a 15.3959(3)
_cell_length_b 15.3959(3)
_cell_length_c 15.3959(3)
_cell_angle_alpha 90
_cell_angle_beta 90
_cell_angle_gamma 90
_cell_formula_units_Z 4
loop_
_atom_type_symbol
_atom_type_radius_bond
C 0.68
H 0.23
Cl 0.99
Cu 1.32
Mo 1.54
N 0.68
S 1.02
loop_
_atom_site_label
_atom_site_type_symbol
_atom_site_fract_x
_atom_site_fract_y
_atom_site_fract_z
Mo1 Mo 0.57970(5) 0.17972(5) 0.46198(5)
Cu1 Cu 0.68699(9) 0.18699(9) 0.31301(9)
S1 S 0.53543(15) 0.03543(15) 0.46457(15)
Cl1 Cl 0.7697(2) 0.2697(2) 0.2303(2)
S2 S 0.72985(16) 0.17547(17) 0.45528(18)
Cl2 Cl 0.42899(17) 0.21588(18) 0.50269(17)
N1 N 0.5897(5) 0.1736(6) 0.6097(5)
H1 H 0.64989 0.15679 0.62186
C1 C 0.5360(8) 0.1131(8) 0.6597(7)
H2 H 0.54873 0.05466 0.64213
H3 H 0.47578 0.12534 0.64926
H4 H 0.54837 0.11973 0.72044
C2 C 0.5805(8) 0.2624(8) 0.6447(8)
H5 H 0.60275 0.26435 0.70359
H6 H 0.51952 0.27829 0.64626
N2 N 0.6032(6) 0.3201(6) 0.4984(6)
H7 H 0.54547 0.34687 0.49694
C3 C 0.6300(8) 0.3267(8) 0.5884(9)
H8 H 0.61953 0.38525 0.60919
H9 H 0.69180 0.31520 0.59279
C4 C 0.6570(9) 0.3765(7) 0.4439(10)
H10 H 0.71558 0.35507 0.44329
H11 H 0.65629 0.43444 0.46682
H12 H 0.63444 0.37684 0.38575
Cu2 Cu 0.37462(12) 0.37462(12) 0.37462(12)
Cl3 Cl 0.45428(19) 0.45428(19) 0.45428(19)
Cl4 Cl 0.29457(18) 0.29457(18) 0.29457(18)
Mo1G Mo 0.53802(5) 0.07970(5) 0.32028(5)
S2G S 0.54472(16) 0.22985(17) 0.32453(18)
Cl2G Cl 0.49731(17) -0.07101(18) 0.28412(17)
N1G N 0.3903(5) 0.0897(6) 0.3264(5)
H1G H 0.37814 0.14989 0.34320
C1G C 0.3403(8) 0.0360(8) 0.3869(7)
H2G H 0.35787 0.04873 0.44534
H3G H 0.35074 -0.02422 0.37466
H4G H 0.27956 0.04837 0.38027
C2G C 0.3553(8) 0.0805(8) 0.2376(8)
H5G H 0.29641 0.10275 0.23565
H6G H 0.35374 0.01952 0.22171
N2G N 0.5016(6) 0.1032(6) 0.1799(6)
H7G H 0.50306 0.04547 0.15313
C3G C 0.4116(8) 0.1300(8) 0.1733(9)
H8G H 0.39081 0.11953 0.11475
H9G H 0.40721 0.19180 0.18480
C4G C 0.5561(9) 0.1570(7) 0.1235(10)
H10G H 0.55671 0.21558 0.14493
H11G H 0.53318 0.15629 0.06556
H12G H 0.61425 0.13444 0.12316
Mo1K Mo 0.67972(5) 0.03802(5) 0.42030(5)
S2K S 0.67547(16) 0.04472(17) 0.27015(18)
Cl2K Cl 0.71588(17) -0.00269(18) 0.57101(17)
N1K N 0.6736(5) -0.1097(6) 0.4103(5)
H1K H 0.65680 -0.12186 0.35011
C1K C 0.6131(8) -0.1597(8) 0.4640(7)
H2K H 0.55466 -0.14213 0.45127
H3K H 0.62534 -0.14926 0.52422
H4K H 0.61974 -0.22044 0.45163
C2K C 0.7624(8) -0.1447(8) 0.4195(8)
H5K H 0.76435 -0.20359 0.39725
H6K H 0.77829 -0.14626 0.48048
N2K N 0.8201(6) 0.0016(6) 0.3968(6)
H7K H 0.84687 0.00306 0.45453
C3K C 0.8267(8) -0.0884(8) 0.3700(9)
H8K H 0.88525 -0.10919 0.38047
H9K H 0.81520 -0.09279 0.30820
C4K C 0.8765(9) 0.0561(7) 0.343(1)
H10K H 0.85507 0.05671 0.28442
H11K H 0.93444 0.03318 0.34371
H12K H 0.87684 0.11425 0.36556
#END

data_CSD_CIF_AVUTAM
_audit_creation_date 2004-07-21
_audit_creation_method CSD-ConQuest-V1
_database_code_CSD AVUTAM
_database_code_depnum_ccdc_archive 'CCDC 227419'
_chemical_formula_sum 'C33 H37 Au1 B1 N6 P1'
_chemical_formula_moiety
;
C33 H37 Au1 B1 N6 P1
;
_journal_coden_Cambridge 222
_journal_year 2004
_journal_page_first 951
_journal_name_full 'Dalton Trans. '
loop_
_publ_author_name
"G.G.Lobbia"
"J.V.Hanna"
"M.Pellei"
"C.Pettinari"
"C.Santini"
"B.W.Skelton"
"A.H.White"
_chemical_name_systematic
;
(Hydrogen tris(3,5-dimethylpyrazolyl)borato)-(triphenylphosphine)-gold(i)
;
_chemical_melting_point 401.15
_cell_volume  10081.896
_exptl_crystal_colour 'colorless'
_exptl_crystal_density_diffrn 1.495
_exptl_special_details
;
Melts with decomposition.

;
_exptl_crystal_description 'block'
_exptl_crystal_preparation 'dichloromethane'
_diffrn_ambient_temperature 150
#These two values have been output from a single CSD field.
_refine_ls_R_factor_gt 0.02
_refine_ls_wR_factor_gt 0.02
_symmetry_cell_setting cubic
_symmetry_space_group_name_H-M 'P 21 3'
_symmetry_Int_Tables_number 198
loop_
_symmetry_equiv_pos_site_id
_symmetry_equiv_pos_as_xyz
1 x,y,z
2 1/2-x,-y,1/2+z
3 1/2+x,1/2-y,-z
4 -x,1/2+y,1/2-z
5 y,z,x
6 1/2-y,-z,1/2+x
7 1/2+y,1/2-z,-x
8 -y,1/2+z,1/2-x
9 z,x,y
10 -z,1/2+x,1/2-y
11 1/2-z,-x,1/2+y
12 1/2+z,1/2-x,-y
_cell_length_a 21.603(2)
_cell_length_b 21.603(2)
_cell_length_c 21.603(2)
_cell_angle_alpha 90
_cell_angle_beta 90
_cell_angle_gamma 90
_cell_formula_units_Z 12
loop_
_atom_type_symbol
_atom_type_radius_bond
C 0.68
H 0.23
Au 1.50
B 0.83
N 0.68
P 1.05
loop_
_atom_site_label
_atom_site_type_symbol
_atom_site_fract_x
_atom_site_fract_y
_atom_site_fract_z
Au1 Au 0.272131(17) 0.272131(17) 0.272131(17)
B1 B 0.3618(4) 0.3618(4) 0.3618(4)
N1 N 0.3865(3) 0.3668(3) 0.2959(3)
N2 N 0.3597(3) 0.3322(3) 0.2496(3)
C1 C 0.3898(4) 0.3465(3) 0.1986(4)
C2 C 0.3728(4) 0.3160(4) 0.1391(4)
C3 C 0.4362(4) 0.3886(4) 0.2101(4)
C4 C 0.4335(4) 0.3999(4) 0.2723(5)
C5 C 0.4726(5) 0.4408(5) 0.3112(5)
P1 P 0.21398(9) 0.21399(9) 0.21399(9)
C6 C 0.1643(3) 0.1619(4) 0.2567(4)
C7 C 0.1433(5) 0.1796(4) 0.3142(5)
C8 C 0.1058(5) 0.1422(6) 0.3483(5)
C9 C 0.0865(5) 0.0866(6) 0.3264(6)
C10 C 0.1078(5) 0.0672(5) 0.2712(6)
C11 C 0.1460(5) 0.1053(5) 0.2355(4)
Au2 Au 0.625004(15) 0.625004(15) 0.625004(15)
B2 B 0.5341(4) 0.5341(4) 0.5341(4)
N3 N 0.5039(3) 0.5367(3) 0.5990(3)
N4 N 0.5334(3) 0.5689(3) 0.6450(3)
C12 C 0.4987(4) 0.5622(4) 0.6957(4)
C13 C 0.5176(4) 0.5935(4) 0.7549(4)
C14 C 0.4484(3) 0.5246(4) 0.6830(4)
C15 C 0.4532(3) 0.5084(3) 0.6225(4)
C16 C 0.4106(4) 0.4697(4) 0.5832(4)
P2 P 0.68336(9) 0.68336(9) 0.68336(9)
C17 C 0.7287(3) 0.7411(4) 0.6420(3)
C18 C 0.7515(4) 0.7249(4) 0.5848(4)
C19 C 0.7888(5) 0.7670(5) 0.5510(4)
C20 C 0.8002(4) 0.8248(5) 0.5754(5)
C21 C 0.7764(5) 0.8413(4) 0.6309(5)
C22 C 0.7411(4) 0.8004(4) 0.6645(4)
Au3 Au 0.931387(19) 0.931387(19) 0.931397(19)
B3 B 1.0194(6) 1.0194(6) 1.0194(6)
N5 N 1.0443(4) 1.0238(6) 0.9530(4)
N6 N 1.0302(4) 0.9775(4) 0.9131(5)
C23 C 1.0555(5) 0.9906(7) 0.8596(7)
C24 C 1.0509(6) 0.9511(7) 0.8054(5)
C25 C 1.0852(7) 1.047(1) 0.8634(7)
C26 C 1.0775(6) 1.0668(7) 0.9192(10)
C27 C 1.0977(5) 1.1259(6) 0.9550(7)
P3 P 0.87301(10) 0.87301(10) 0.87302(10)
C28 C 0.8154(4) 0.9156(4) 0.8285(4)
C29 C 0.8318(4) 0.9696(5) 0.8008(5)
C30 C 0.7903(6) 1.0035(5) 0.7663(6)
C31 C 0.7324(6) 0.9807(5) 0.7578(5)
C32 C 0.7145(4) 0.9264(5) 0.7843(4)
C33 C 0.7563(4) 0.8936(3) 0.8206(4)
H1 H 0.38763 0.38763 0.38763
H2 H 0.39224 0.27478 0.13765
H3 H 0.39020 0.33879 0.10516
H4 H 0.32947 0.31206 0.13325
H5 H 0.46371 0.40611 0.17985
H6 H 0.50082 0.41829 0.33734
H7 H 0.44869 0.46767 0.33736
H8 H 0.49741 0.46650 0.28364
H9 H 0.15748 0.21913 0.33173
H10 H 0.08992 0.15566 0.38807
H11 H 0.05757 0.06029 0.34991
H12 H 0.09530 0.02649 0.25734
H13 H 0.15748 0.09230 0.19215
H14 H 0.50925 0.50925 0.50925
H15 H 0.48942 0.62407 0.76741
H16 H 0.52108 0.56287 0.78766
H17 H 0.55807 0.61140 0.75106
H18 H 0.41744 0.51095 0.71166
H19 H 0.43259 0.46204 0.54624
H20 H 0.37690 0.49844 0.57327
H21 H 0.40164 0.43179 0.60494
H22 H 0.74178 0.68483 0.56648
H23 H 0.80713 0.75449 0.51163
H24 H 0.82614 0.85390 0.55178
H25 H 0.78314 0.88258 0.64574
H26 H 0.72483 0.81355 0.70393
H27 H 1.04300 1.04300 1.04300
H28 H 1.08133 0.95778 0.77531
H29 H 1.01050 0.95430 0.78660
H30 H 1.05442 0.90745 0.81869
H31 H 1.10981 1.07085 0.83286
H32 H 1.08779 1.16459 0.93580
H33 H 1.07463 1.13043 0.99758
H34 H 1.14117 1.12794 0.97004
H35 H 0.87398 0.98504 0.80385
H36 H 0.80028 1.04460 0.75011
H37 H 0.70220 1.00384 0.73369
H38 H 0.67249 0.90896 0.77594
H39 H 0.74305 0.85627 0.84237
N1D N 0.3668(3) 0.2959(3) 0.3865(3)
N2D N 0.3322(3) 0.2496(3) 0.3597(3)
N2H N 0.2496(3) 0.3597(3) 0.3322(3)
N1H N 0.2959(3) 0.3865(3) 0.3668(3)
C4H C 0.2723(4) 0.4335(4) 0.3999(5)
C3H C 0.2101(4) 0.4362(4) 0.3886(4)
C1H C 0.1986(4) 0.3898(3) 0.3465(4)
C2H C 0.1391(4) 0.3728(4) 0.3160(4)
H2H H 0.13765 0.39224 0.27478
H3H H 0.10516 0.39020 0.33879
H4H H 0.13325 0.32947 0.31206
H5H H 0.17985 0.46371 0.40611
C5H C 0.3112(5) 0.4726(5) 0.4408(5)
H6H H 0.33734 0.50082 0.41829
H7H H 0.33736 0.44869 0.46767
H8H H 0.28364 0.49741 0.46650
C6D C 0.1619(3) 0.2567(4) 0.1643(4)
C7D C 0.1796(5) 0.3142(4) 0.1433(5)
C8D C 0.1422(5) 0.3483(6) 0.1058(5)
C9D C 0.0866(5) 0.3264(6) 0.0865(6)
C10D C 0.0672(5) 0.2712(5) 0.1078(6)
C11D C 0.1053(5) 0.2355(5) 0.1460(4)
H13D H 0.09230 0.19215 0.15748
H12D H 0.02649 0.25734 0.09530
H11D H 0.06029 0.34991 0.05757
H10D H 0.15566 0.38807 0.08992
H9D H 0.21913 0.33173 0.15748
C6H C 0.2567(3) 0.1643(4) 0.1619(4)
C7H C 0.3142(5) 0.1433(4) 0.1796(5)
C8H C 0.3483(5) 0.1058(6) 0.1422(5)
C9H C 0.3264(5) 0.0865(6) 0.0866(6)
C10H C 0.2712(5) 0.1078(5) 0.0672(6)
C11H C 0.2355(5) 0.1460(5) 0.1053(4)
H13H H 0.19215 0.15748 0.09230
H12H H 0.25734 0.09530 0.02649
H11H H 0.34991 0.05757 0.06029
H10H H 0.38807 0.08992 0.15566
H9H H 0.33173 0.15748 0.21913
C1D C 0.3465(4) 0.1986(3) 0.3898(4)
C2D C 0.3160(4) 0.1391(4) 0.3728(4)
H2D H 0.27478 0.13765 0.39224
H3D H 0.33879 0.10516 0.39020
H4D H 0.31206 0.13325 0.32947
C3D C 0.3886(4) 0.2101(4) 0.4362(4)
C4D C 0.3999(4) 0.2723(4) 0.4335(5)
C5D C 0.4408(5) 0.3112(5) 0.4726(5)
H6D H 0.41829 0.33734 0.50082
H7D H 0.46767 0.33736 0.44869
H8D H 0.46650 0.28364 0.49741
H5D H 0.40611 0.17985 0.46371
N3D N 0.5367(3) 0.5990(3) 0.5039(3)
N4D N 0.5689(3) 0.6450(3) 0.5334(3)
N4H N 0.6450(3) 0.5334(3) 0.5689(3)
N3H N 0.5990(3) 0.5039(3) 0.5367(3)
C15H C 0.6225(3) 0.4532(3) 0.5084(4)
C14H C 0.6830(3) 0.4484(4) 0.5246(4)
C12H C 0.6957(4) 0.4987(4) 0.5622(4)
C13H C 0.7549(4) 0.5176(4) 0.5935(4)
H15H H 0.76741 0.48942 0.62407
H16H H 0.78766 0.52108 0.56287
H17H H 0.75106 0.55807 0.61140
H18H H 0.71166 0.41744 0.51095
C16H C 0.5832(4) 0.4106(4) 0.4697(4)
H19H H 0.54624 0.43259 0.46204
H20H H 0.57327 0.37690 0.49844
H21H H 0.60494 0.40164 0.43179
C17D C 0.7411(3) 0.6420(4) 0.7287(3)
C18D C 0.7249(4) 0.5848(4) 0.7515(4)
C19D C 0.7670(5) 0.5510(5) 0.7888(4)
C20D C 0.8248(4) 0.5754(5) 0.8002(5)
C21D C 0.8413(5) 0.6309(4) 0.7764(5)
C22D C 0.8004(4) 0.6645(4) 0.7411(4)
H26D H 0.81355 0.70393 0.72483
H25D H 0.88258 0.64574 0.78314
H24D H 0.85390 0.55178 0.82614
H23D H 0.75449 0.51163 0.80713
H22D H 0.68483 0.56648 0.74178
C17H C 0.6420(3) 0.7287(4) 0.7411(3)
C18H C 0.5848(4) 0.7515(4) 0.7249(4)
C19H C 0.5510(5) 0.7888(5) 0.7670(4)
C20H C 0.5754(4) 0.8002(5) 0.8248(5)
C21H C 0.6309(5) 0.7764(4) 0.8413(5)
C22H C 0.6645(4) 0.7411(4) 0.8004(4)
H26H H 0.70393 0.72483 0.81355
H25H H 0.64574 0.78314 0.88258
H24H H 0.55178 0.82614 0.85390
H23H H 0.51163 0.80713 0.75449
H22H H 0.56648 0.74178 0.68483
C12D C 0.5622(4) 0.6957(4) 0.4987(4)
C13D C 0.5935(4) 0.7549(4) 0.5176(4)
H15D H 0.62407 0.76741 0.48942
H16D H 0.56287 0.78766 0.52108
H17D H 0.61140 0.75106 0.55807
C14D C 0.5246(3) 0.6830(4) 0.4484(4)
C15D C 0.5084(3) 0.6225(3) 0.4532(4)
C16D C 0.4697(4) 0.5832(4) 0.4106(4)
H19D H 0.46204 0.54624 0.43259
H20D H 0.49844 0.57327 0.37690
H21D H 0.43179 0.60494 0.40164
H18D H 0.51095 0.71166 0.41744
N5D N 1.0238(4) 0.9530(6) 1.0443(4)
N6D N 0.9775(4) 0.9131(4) 1.0302(5)
N6H N 0.9131(4) 1.0302(4) 0.9775(5)
N5H N 0.9530(4) 1.0443(6) 1.0238(4)
C26H C 0.9192(6) 1.0775(7) 1.0668(10)
C25H C 0.8634(7) 1.0852(10) 1.0470(7)
C23H C 0.8596(5) 1.0555(7) 0.9906(7)
C24H C 0.8054(6) 1.0509(7) 0.9511(5)
H28H H 0.77531 1.08133 0.95778
H29H H 0.78660 1.01050 0.95430
H30H H 0.81869 1.05442 0.90745
H31H H 0.83286 1.10981 1.07085
C27H C 0.9550(5) 1.0977(6) 1.1259(7)
H32H H 0.93580 1.08779 1.16459
H33H H 0.99758 1.07463 1.13043
H34H H 0.97004 1.14117 1.12794
C28D C 0.9156(4) 0.8285(4) 0.8154(4)
C29D C 0.9696(4) 0.8008(5) 0.8318(5)
C30D C 1.0035(6) 0.7663(5) 0.7903(6)
C31D C 0.9807(6) 0.7578(5) 0.7324(5)
C32D C 0.9264(4) 0.7843(5) 0.7145(4)
C33D C 0.8936(4) 0.8206(3) 0.7563(4)
H39D H 0.85627 0.84237 0.74305
H38D H 0.90896 0.77594 0.67249
H37D H 1.00384 0.73369 0.70220
H36D H 1.04460 0.75011 0.80028
H35D H 0.98504 0.80385 0.87398
C28H C 0.8285(4) 0.8154(4) 0.9156(4)
C29H C 0.8008(4) 0.8318(5) 0.9696(5)
C30H C 0.7663(6) 0.7903(5) 1.0035(6)
C31H C 0.7578(6) 0.7324(5) 0.9807(5)
C32H C 0.7843(4) 0.7145(5) 0.9264(4)
C33H C 0.8206(4) 0.7563(3) 0.8936(4)
H39H H 0.84237 0.74305 0.85627
H38H H 0.77594 0.67249 0.90896
H37H H 0.73369 0.70220 1.00384
H36H H 0.75011 0.80028 1.04460
H35H H 0.80385 0.87398 0.98504
C23D C 0.9906(5) 0.8596(7) 1.0555(7)
C24D C 0.9511(6) 0.8054(7) 1.0509(5)
H28D H 0.95778 0.77531 1.08133
H29D H 0.95430 0.78660 1.01050
H30D H 0.90745 0.81869 1.05442
C25D C 1.0470(7) 0.8634(10) 1.0852(7)
C26D C 1.0668(6) 0.9192(7) 1.0775(10)
C27D C 1.1259(5) 0.9550(6) 1.0977(7)
H32D H 1.16459 0.93580 1.08779
H33D H 1.13043 0.99758 1.07463
H34D H 1.12794 0.97004 1.14117
H31D H 1.07085 0.83286 1.10981
#END

data_CSD_CIF_BATVID
_audit_creation_date 2012-08-21
_audit_creation_method CSD-ConQuest-V1
_database_code_CSD BATVID
_database_code_depnum_ccdc_archive 'CCDC 832352'
_chemical_formula_sum 'C27 H39 N1 O1 U1'
_chemical_formula_moiety
;
C27 H39 N1 O1 U1
;
_journal_coden_Cambridge 4
_journal_volume 134
_journal_year 2012
_journal_page_first 1243
_journal_name_full 'J.Am.Chem.Soc. '
loop_
_publ_author_name
"N.A.Siladkea"
"K.R.Meihaus"
"J.W.Zillera"
"Ming Fang"
"F.Furche"
"J.R.Long"
"W.J.Evans"
_chemical_name_systematic
;
Nitrosyl-tris(\h^5^-tetramethyl-cyclopentadienyl)-uranium
;
_cell_volume   2419.001
_exptl_crystal_colour 'brown'
_exptl_crystal_density_diffrn 1.734
_exptl_special_details
;
Absolute configuration

;
_exptl_crystal_description 'irregular'
_diffrn_ambient_temperature 93
#These two values have been output from a single CSD field.
_refine_ls_R_factor_gt 0.0158
_refine_ls_wR_factor_gt 0.0158
_symmetry_cell_setting cubic
_symmetry_space_group_name_H-M 'P 21 3'
_symmetry_Int_Tables_number 198
loop_
_symmetry_equiv_pos_site_id
_symmetry_equiv_pos_as_xyz
1 x,y,z
2 z,x,y
3 y,z,x
4 1/2-y,-z,1/2+x
5 1/2+z,1/2-x,-y
6 -y,1/2+z,1/2-x
7 1/2-z,-x,1/2+y
8 -z,1/2+x,1/2-y
9 1/2+y,1/2-z,-x
10 1/2+x,1/2-y,-z
11 -x,1/2+y,1/2-z
12 1/2-x,-y,1/2+z
_cell_length_a 13.4239(7)
_cell_length_b 13.4239(7)
_cell_length_c 13.4239(7)
_cell_angle_alpha 90
_cell_angle_beta 90
_cell_angle_gamma 90
_cell_formula_units_Z 4
loop_
_atom_type_symbol
_atom_type_radius_bond
C 0.68
H 0.23
N 0.63
O 0.68
U 1.76
loop_
_atom_site_label
_atom_site_type_symbol
_atom_site_fract_x
_atom_site_fract_y
_atom_site_fract_z
U1 U 0.247157(5) 0.247157(5) 0.247157(5)
N1 N 0.33375(17) 0.33375(17) 0.33375(17)
O1 O 0.38668(15) 0.38668(15) 0.38668(15)
C1 C 0.3016(2) 0.1358(2) 0.4111(2)
C2 C 0.2034(2) 0.1667(2) 0.4355(2)
C3 C 0.1356(2) 0.1172(2) 0.3706(2)
C4 C 0.1925(2) 0.0587(2) 0.3036(2)
C5 C 0.2942(2) 0.0706(2) 0.3295(2)
H1 H 0.34870 0.03930 0.29690
C6 C 0.3936(2) 0.1572(3) 0.4715(3)
H2 H 0.38710 0.12650 0.53740
H3 H 0.40150 0.22940 0.47900
H4 H 0.45200 0.12970 0.43750
C7 C 0.1771(2) 0.2315(2) 0.5236(2)
H5 H 0.17890 0.19150 0.58460
H6 H 0.11010 0.25900 0.51440
H7 H 0.22530 0.28610 0.52880
C8 C 0.0239(2) 0.1101(2) 0.3835(2)
H8 H -0.00920 0.13620 0.32400
H9 H 0.00360 0.14920 0.44180
H10 H 0.00490 0.04030 0.39330
C9 C 0.1486(2) -0.0125(2) 0.2279(3)
H11 H 0.18660 -0.07480 0.22820
H12 H 0.15190 0.01760 0.16140
H13 H 0.07900 -0.02630 0.24490
C1A C 0.4111(2) 0.3016(2) 0.1358(2)
C1B C 0.1358(2) 0.4111(2) 0.3016(2)
C2A C 0.4355(2) 0.2034(2) 0.1667(2)
C2B C 0.1667(2) 0.4355(2) 0.2034(2)
C3A C 0.3706(2) 0.1356(2) 0.1172(2)
C3B C 0.1172(2) 0.3706(2) 0.1356(2)
C4A C 0.3036(2) 0.1925(2) 0.0587(2)
C4B C 0.0587(2) 0.3036(2) 0.1925(2)
C5A C 0.3295(2) 0.2942(2) 0.0706(2)
C5B C 0.0706(2) 0.3295(2) 0.2942(2)
H1A H 0.29690 0.34870 0.03930
H1B H 0.03930 0.29690 0.34870
C6A C 0.4715(2) 0.3936(3) 0.1572(3)
C6B C 0.1572(2) 0.4715(3) 0.3936(3)
H2A H 0.53740 0.38710 0.12650
H2B H 0.12650 0.53740 0.38710
H3A H 0.47900 0.40150 0.22940
H3B H 0.22940 0.47900 0.40150
H4A H 0.43750 0.45200 0.12970
H4B H 0.12970 0.43750 0.45200
C7A C 0.5236(2) 0.1771(2) 0.2315(2)
C7B C 0.2315(2) 0.5236(2) 0.1771(2)
H5A H 0.58460 0.17890 0.19150
H5B H 0.19150 0.58460 0.17890
H6A H 0.51440 0.11010 0.25900
H6B H 0.25900 0.51440 0.11010
H7A H 0.52880 0.22530 0.28610
H7B H 0.28610 0.52880 0.22530
C8B C 0.1101(2) 0.3835(2) 0.0239(2)
C8A C 0.3835(2) 0.0239(2) 0.1101(2)
H8B H 0.13620 0.32400 -0.00920
H8A H 0.32400 -0.00920 0.13620
H9B H 0.14920 0.44180 0.00360
H9A H 0.44180 0.00360 0.14920
H10B H 0.04030 0.39330 0.00490
H10A H 0.39330 0.00490 0.04030
C9A C 0.2279(2) 0.1486(2) -0.0125(3)
C9B C -0.0125(2) 0.2279(2) 0.1486(3)
H11A H 0.22820 0.18660 -0.07480
H11B H -0.07480 0.22820 0.18660
H12A H 0.16140 0.15190 0.01760
H12B H 0.01760 0.16140 0.15190
H13A H 0.24490 0.07900 -0.02630
H13B H -0.02630 0.24490 0.07900
#END

data_CSD_CIF_BAXJUI
_audit_creation_date 2017-06-07
_audit_creation_method CSD-ConQuest-V1
_database_code_CSD BAXJUI
_database_code_depnum_ccdc_archive 'CCDC 1541142'
_chemical_formula_sum 'C48 H63 B2 F8 Fe1 N9'
_chemical_formula_moiety
;
C48 H63 Fe1 N9 2+,2(B1 F4 1-)
;
_journal_coden_Cambridge 222
_journal_volume 46
_journal_year 2017
_journal_page_first 8004
_journal_name_full 'Dalton Trans. '
loop_
_publ_author_name
"Wang-Kang Han"
"Long-Fang Qin"
"Chun-Yan Pang"
"Cai-Kun Cheng"
"Wei Zhu"
"Zhi-Hua Li"
"Zaijun Li"
"Xuehong Ren"
"Zhi-Guo Gu"
_chemical_name_systematic
;
tris[1-(1-butyl-1H-imidazol-2-yl)-N-(1-phenylethyl)methanimine]-iron 
bis(tetrafluoroborate)
;
_cell_volume   4915.688
_exptl_crystal_colour 'black'
_exptl_crystal_density_diffrn 1.345
_exptl_special_details
;
Absolute configuration
P213 polymorph

;
_exptl_crystal_description 'block'
_diffrn_ambient_temperature 100
#These two values have been output from a single CSD field.
_refine_ls_R_factor_gt 0.0241
_refine_ls_wR_factor_gt 0.0241
_symmetry_cell_setting cubic
_symmetry_space_group_name_H-M 'P 21 3'
_symmetry_Int_Tables_number 198
loop_
_symmetry_equiv_pos_site_id
_symmetry_equiv_pos_as_xyz
1 x,y,z
2 1/2-x,-y,1/2+z
3 -x,1/2+y,1/2-z
4 1/2+x,1/2-y,-z
5 z,x,y
6 1/2+z,1/2-x,-y
7 1/2-z,-x,1/2+y
8 -z,1/2+x,1/2-y
9 y,z,x
10 -y,1/2+z,1/2-x
11 1/2+y,1/2-z,-x
12 1/2-y,-z,1/2+x
_cell_length_a 17.0031(2)
_cell_length_b 17.0031(2)
_cell_length_c 17.0031(2)
_cell_angle_alpha 90
_cell_angle_beta 90
_cell_angle_gamma 90
_cell_formula_units_Z 4
loop_
_atom_type_symbol
_atom_type_radius_bond
C 0.68
H 0.23
B 0.83
F 0.64
Fe 1.52
N 0.68
loop_
_atom_site_label
_atom_site_type_symbol
_atom_site_fract_x
_atom_site_fract_y
_atom_site_fract_z
B1 B 0.22616(13) 0.27384(13) 0.72616(13)
F1 F 0.28194(6) 0.32021(7) 0.76397(7)
F2 F 0.17907(6) 0.32093(6) 0.67907(6)
B2 B 0.78876(13) 0.71124(13) 0.28876(13)
F3 F 0.79784(7) 0.68970(7) 0.21080(6)
F4 F 0.83592(6) 0.66408(6) 0.33592(6)
C1 C 0.0650(1) 0.66436(10) 0.05591(10)
C2 C -0.0510(1) 0.6485(1) 0.10904(10)
H1 H -0.09460 0.65150 0.14380
C3 C -0.04847(11) 0.60870(11) 0.03928(11)
H2 H -0.09010 0.57860 0.01730
C4 C 0.14391(10) 0.68433(10) 0.03384(10)
H3 H 0.17730 0.71590 0.06570
C5 C 0.2453(1) 0.67638(10) -0.06354(10)
H4 H 0.23840 0.69810 -0.11770
C6 C 0.29735(10) 0.60386(10) -0.07015(10)
C7 C 0.30584(11) 0.55287(10) -0.00750(11)
H5 H 0.27590 0.56080 0.03900
C8 C 0.35773(11) 0.49024(11) -0.01197(11)
H6 H 0.36310 0.45530 0.03130
C9 C 0.40169(11) 0.47853(11) -0.07931(12)
H7 H 0.43680 0.43520 -0.08260
C10 C 0.39460(11) 0.52985(11) -0.14191(12)
H8 H 0.42530 0.52200 -0.18800
C11 C 0.34251(10) 0.59319(11) -0.13775(10)
H9 H 0.33790 0.62870 -0.18060
C12 C 0.29038(11) 0.73801(10) -0.01523(11)
H10 H 0.25810 0.78540 -0.00960
H11 H 0.33950 0.75140 -0.04220
H12 H 0.30230 0.71660 0.03690
C13 C 0.03954(12) 0.74048(11) 0.18215(10)
H13 H 0.00670 0.78800 0.17480
H14 H 0.09530 0.75640 0.17720
C14 C 0.02570(11) 0.70785(11) 0.26466(10)
H15 H -0.02730 0.68390 0.26770
H16 H 0.06500 0.66650 0.27630
C15 C 0.03247(12) 0.77386(12) 0.32495(10)
H17 H 0.08490 0.79880 0.32000
H18 H -0.00770 0.81440 0.31330
C16 C 0.02157(13) 0.74550(12) 0.40899(11)
H19 H -0.02930 0.71890 0.41390
H20 H 0.02320 0.79060 0.44480
H21 H 0.06380 0.70870 0.42250
Fe1 Fe 0.084555(14) 0.584555(14) -0.084555(14)
N1 N 0.02463(8) 0.61957(8) 0.00622(8)
N2 N 0.02073(8) 0.68314(9) 0.11961(8)
N3 N 0.16573(8) 0.65561(8) -0.03316(8)
F1E F 0.26397(6) 0.21806(7) 0.67979(7)
F1K F 0.17979(6) 0.23603(7) 0.78194(7)
F3E F 0.71080(7) 0.70216(7) 0.31030(6)
F3K F 0.81030(7) 0.78920(7) 0.29784(6)
C1G C -0.05591(10) 0.5650(1) -0.16436(10)
C2G C -0.10904(10) 0.4490(1) -0.1485(1)
H1G H -0.14380 0.40540 -0.15150
C3G C -0.03928(11) 0.45153(11) -0.10870(11)
H2G H -0.01730 0.40990 -0.07860
C4G C -0.03384(10) 0.64391(10) -0.18433(10)
H3G H -0.06570 0.67730 -0.21590
C5G C 0.06354(10) 0.7453(1) -0.17638(10)
H4G H 0.11770 0.73840 -0.19810
C6G C 0.07015(10) 0.79735(10) -0.10386(10)
C7G C 0.00750(11) 0.80584(10) -0.05287(11)
H5G H -0.03900 0.77590 -0.06080
C8G C 0.01197(11) 0.85773(11) 0.00976(11)
H6G H -0.03130 0.86310 0.04470
C9G C 0.07931(11) 0.90169(11) 0.02147(12)
H7G H 0.08260 0.93680 0.06480
C10G C 0.14191(11) 0.89460(11) -0.02985(12)
H8G H 0.18800 0.92530 -0.02200
C11G C 0.13775(10) 0.84251(11) -0.09319(10)
H9G H 0.18060 0.83790 -0.12870
C12G C 0.01523(11) 0.79038(10) -0.23801(11)
H10G H 0.00960 0.75810 -0.28540
H11G H 0.04220 0.83950 -0.25140
H12G H -0.03690 0.80230 -0.21660
C13G C -0.18215(12) 0.53954(11) -0.24048(10)
H13G H -0.17480 0.50670 -0.28800
H14G H -0.17720 0.59530 -0.25640
C14G C -0.26466(11) 0.52570(11) -0.20785(10)
H15G H -0.26770 0.47270 -0.18390
H16G H -0.27630 0.56500 -0.16650
C15G C -0.32495(12) 0.53247(12) -0.27386(10)
H17G H -0.32000 0.58490 -0.29880
H18G H -0.31330 0.49230 -0.31440
C16G C -0.40899(13) 0.52157(12) -0.24550(11)
H19G H -0.41390 0.47070 -0.21890
H20G H -0.44480 0.52320 -0.29060
H21G H -0.42250 0.56380 -0.20870
N1G N -0.00622(8) 0.52463(8) -0.11957(8)
N2G N -0.11961(8) 0.52073(9) -0.18314(8)
N3G N 0.03316(8) 0.66573(8) -0.15561(8)
C1J C 0.16436(10) 0.44409(10) -0.0650(1)
C2J C 0.1485(1) 0.39096(10) 0.0510(1)
H1J H 0.15150 0.35620 0.09460
C3J C 0.10870(11) 0.46072(11) 0.04847(11)
H2J H 0.07860 0.48270 0.09010
C4J C 0.18433(10) 0.46616(10) -0.14391(10)
H3J H 0.21590 0.43430 -0.17730
C5J C 0.17638(10) 0.56354(10) -0.2453(1)
H4J H 0.19810 0.61770 -0.23840
C6J C 0.10386(10) 0.57015(10) -0.29735(10)
C7J C 0.05287(11) 0.5075(1) -0.30584(11)
H5J H 0.06080 0.46100 -0.27590
C8J C -0.00976(11) 0.51197(11) -0.35773(11)
H6J H -0.04470 0.46870 -0.36310
C9J C -0.02147(11) 0.57931(11) -0.40169(12)
H7J H -0.06480 0.58260 -0.43680
C10J C 0.02985(11) 0.64191(11) -0.39460(12)
H8J H 0.02200 0.68800 -0.42530
C11J C 0.09319(10) 0.63775(11) -0.34251(10)
H9J H 0.12870 0.68060 -0.33790
C12J C 0.23801(11) 0.51523(10) -0.29038(11)
H10J H 0.28540 0.50960 -0.25810
H11J H 0.25140 0.54220 -0.33950
H12J H 0.21660 0.46310 -0.30230
C13J C 0.24048(12) 0.31785(11) -0.03954(10)
H13J H 0.28800 0.32520 -0.00670
H14J H 0.25640 0.32280 -0.09530
C14J C 0.20785(11) 0.23534(11) -0.0257(1)
H15J H 0.18390 0.23230 0.02730
H16J H 0.16650 0.22370 -0.06500
C15J C 0.27386(12) 0.17505(12) -0.03247(10)
H17J H 0.29880 0.18000 -0.08490
H18J H 0.31440 0.18670 0.00770
C16J C 0.24550(13) 0.09101(12) -0.02157(11)
H19J H 0.21890 0.08610 0.02930
H20J H 0.29060 0.05520 -0.02320
H21J H 0.20870 0.07750 -0.06380
N1J N 0.11957(8) 0.49378(8) -0.02463(8)
N2J N 0.18314(8) 0.38039(9) -0.02073(8)
N3J N 0.15561(8) 0.53316(8) -0.16573(8)
#END

data_CSD_CIF_BEMQUF
_audit_creation_date 1999-11-19
_audit_creation_method CSD-ConQuest-V1
_database_code_CSD BEMQUF
_database_code_depnum_ccdc_archive 'CCDC 125668'
_chemical_formula_sum 'C6 H15 B1 N2'
_chemical_formula_moiety
;
C6 H15 B1 N2
;
_journal_coden_Cambridge 1346
_journal_year 1992
_journal_name_full 'U.S.Patents '
loop_
_publ_author_name
"A.J.Arduengo III"
_chemical_name_systematic
;
1,4-Diazabicyclo(2.2.2)octane monoborane
;
_cell_volume    773.621
_exptl_crystal_colour 'colorless'
_exptl_special_details
;
U.S. Patent: US 5144032

;
_exptl_crystal_description 'irregular block'
_exptl_crystal_preparation 'THF'
_diffrn_ambient_temperature ?
_diffrn_special_details
;
The study was carried out at room temperature,in the range 283-303K

;
#These two values have been output from a single CSD field.
_refine_ls_R_factor_gt 0.049
_refine_ls_wR_factor_gt 0.049
_symmetry_cell_setting cubic
_symmetry_space_group_name_H-M 'P 21 3'
_symmetry_Int_Tables_number 198
loop_
_symmetry_equiv_pos_site_id
_symmetry_equiv_pos_as_xyz
1 x,y,z
2 1/2-x,-y,1/2+z
3 1/2+x,1/2-y,-z
4 z,x,y
5 -x,1/2+y,1/2-z
6 1/2-z,-x,1/2+y
7 1/2+z,1/2-x,-y
8 -z,1/2+x,1/2-y
9 y,z,x
10 1/2+y,1/2-z,-x
11 -y,1/2+z,1/2-x
12 1/2-y,-z,1/2+x
_cell_length_a 9.180(1)
_cell_length_b 9.180(1)
_cell_length_c 9.180(1)
_cell_angle_alpha 90
_cell_angle_beta 90
_cell_angle_gamma 90
_cell_formula_units_Z 4
loop_
_atom_type_symbol
_atom_type_radius_bond
C 0.68
H 0.23
B 0.83
N 0.68
loop_
_atom_site_label
_atom_site_type_symbol
_atom_site_fract_x
_atom_site_fract_y
_atom_site_fract_z
N1 N 0.0595(4) 0.05950 0.05950
N2 N -0.1030(4) -0.10300 -0.10300
C1 C 0.1068(5) -0.0961(5) 0.0660(5)
C2 C 0.0209(5) -0.1845(4) -0.0459(5)
B1 B 0.1600(7) 0.16000 0.16000
H1 H 0.15220 0.12770 0.25770
H2 H 0.21030 -0.10670 0.05080
H3 H 0.08600 -0.13800 0.16300
H4 H -0.00840 -0.27750 -0.00750
H5 H 0.08830 -0.20960 -0.12720
C2C C -0.0459(5) 0.0209(4) -0.1845(5)
C1C C 0.0660(5) 0.1068(5) -0.0961(5)
C1H C -0.0961(5) 0.0660(5) 0.1068(5)
C2H C -0.1845(5) -0.0459(4) 0.0209(5)
H4H H -0.27750 -0.00750 -0.00840
H5H H -0.20960 -0.12720 0.08830
H2H H -0.10670 0.05080 0.21030
H3H H -0.13800 0.16300 0.08600
H1C H 0.25770 0.15220 0.12770
H1H H 0.12770 0.25770 0.15220
H2C H 0.05080 0.21030 -0.10670
H3C H 0.16300 0.08600 -0.13800
H4C H -0.00750 -0.00840 -0.27750
H5C H -0.12720 0.08830 -0.20960
#END

data_CSD_CIF_BIKJEK
_audit_creation_date 1983-03-10
_audit_creation_method CSD-ConQuest-V1
_database_code_CSD BIKJEK
_chemical_formula_sum 'C14 H30 Cl5 Co1 N4 S3 Zn1'
_chemical_formula_moiety
;
C14 H30 Co1 N4 S3 3+,Cl4 Zn1 2-,Cl1 1-
;
_journal_coden_Cambridge 9
_journal_volume 21
_journal_year 1982
_journal_page_first 2699
_journal_name_full 'Inorg.Chem. '
loop_
_publ_author_name
"L.R.Gahan"
"T.W.Hambley"
"A.M.Sargeson"
"M.R.Snow"
_chemical_name_systematic
;
(+)~510~-(1-Methyl-3,13,16-trithia-6,8,10,19-tetra-azabicyclo(6.6.6)eicosane)-
cobalt(iii) tetrachloro-zinc chloride
;
_cell_volume   2389.980
_exptl_crystal_colour 'red'
_exptl_crystal_density_diffrn 1.801
_exptl_special_details
;
Absolute configuration
x(Cl3) should probably be 0.9420, not 0.9240. z(Cl1) should be 0.39398, not 
0.31398
;
_diffrn_ambient_temperature ?
_diffrn_special_details
;
The study was carried out at room temperature,in the range 283-303K

;
#These two values have been output from a single CSD field.
_refine_ls_R_factor_gt 0.0268
_refine_ls_wR_factor_gt 0.0268
_symmetry_cell_setting cubic
_symmetry_space_group_name_H-M 'P 21 3'
_symmetry_Int_Tables_number 198
loop_
_symmetry_equiv_pos_site_id
_symmetry_equiv_pos_as_xyz
1 x,y,z
2 z,x,y
3 y,z,x
4 1/2+x,1/2-y,-z
5 1/2+z,1/2-x,-y
6 1/2+y,1/2-z,-x
7 -x,1/2+y,1/2-z
8 -z,1/2+x,1/2-y
9 -y,1/2+z,1/2-x
10 1/2-x,-y,1/2+z
11 1/2-z,-x,1/2+y
12 1/2-y,-z,1/2+x
_cell_length_a 13.370(1)
_cell_length_b 13.370(1)
_cell_length_c 13.370(1)
_cell_angle_alpha 90
_cell_angle_beta 90
_cell_angle_gamma 90
_cell_formula_units_Z 4
loop_
_atom_type_symbol
_atom_type_radius_bond
C 0.68
Cl 0.99
Co 1.33
N 0.68
S 1.02
Zn 1.45
loop_
_atom_site_label
_atom_site_type_symbol
_atom_site_fract_x
_atom_site_fract_y
_atom_site_fract_z
Co1 Co 0.69394 0.69394 0.69394
Zn1 Zn 0.29826 0.29826 0.29826
Cl1 Cl 0.18425 0.21568 0.39398
Cl2 Cl 0.39626 0.39626 0.39626
Cl3 Cl 0.09420 0.09420 0.09420
S1 S 0.63620 0.80055 0.80800
N1 N 0.59590 0.59280 0.74640
N2 N 0.56670 0.56670 0.56670
C1 C 0.90890 0.90890 0.90890
C2 C 0.84220 0.84220 0.84220
C3 C 0.73670 0.84700 0.88600
C4 C 0.57200 0.70920 0.88570
C5 C 0.52090 0.64090 0.81250
C6 C 0.54750 0.53020 0.66610
S1A S 0.80800 0.63620 0.80055
S1B S 0.80055 0.80800 0.63620
N1A N 0.74640 0.59590 0.59280
N1B N 0.59280 0.74640 0.59590
C3A C 0.88600 0.73670 0.84700
C3B C 0.84700 0.88600 0.73670
C6A C 0.66610 0.54750 0.53020
C6B C 0.53020 0.66610 0.54750
C4A C 0.88570 0.57200 0.70920
C4B C 0.70920 0.88570 0.57200
C5A C 0.81250 0.52090 0.64090
C5B C 0.64090 0.81250 0.52090
Cl1A Cl 0.39398 0.18425 0.21568
Cl1B Cl 0.21568 0.39398 0.18425
#END

data_CSD_CIF_BINJOZ
_audit_creation_date 2013-11-27
_audit_creation_method CSD-ConQuest-V1
_database_code_CSD BINJOZ
_database_code_depnum_ccdc_archive 'CCDC 934080'
_chemical_formula_sum 'C30 H45 Cl5 Co1 N4'
_chemical_formula_moiety
;
C30 H45 N4 3+,Cl4 Co1 2-,Cl1 1-
;
_journal_coden_Cambridge 1290
_journal_year 2013
_journal_page_first 6079
_journal_name_full 'Eur.J.Inorg.Chem. '
loop_
_publ_author_name
"A.W.von Leupoldt"
"C.Forster"
"T.J.Fiedler"
"N.H.Bings"
"K.Heinze"
_chemical_name_systematic
;
N,N',N''-(nitrilotriethane-2,1-diyl)tris(3,5-dimethylanilinium) 
tetrachloro-cobalt(ii) chloride
;
_cell_volume   3584.317
_exptl_crystal_colour 'green'
_exptl_crystal_density_diffrn 1.293
_exptl_crystal_description 'block'
_diffrn_ambient_temperature 173
#These two values have been output from a single CSD field.
_refine_ls_R_factor_gt 0.03
_refine_ls_wR_factor_gt 0.03
_symmetry_cell_setting cubic
_symmetry_space_group_name_H-M 'P 21 3'
_symmetry_Int_Tables_number 198
loop_
_symmetry_equiv_pos_site_id
_symmetry_equiv_pos_as_xyz
1 x,y,z
2 1/2-x,-y,1/2+z
3 -x,1/2+y,1/2-z
4 1/2+x,1/2-y,-z
5 z,x,y
6 1/2+z,1/2-x,-y
7 1/2-z,-x,1/2+y
8 -z,1/2+x,1/2-y
9 y,z,x
10 -y,1/2+z,1/2-x
11 1/2+y,1/2-z,-x
12 1/2-y,-z,1/2+x
_cell_length_a 15.3039(2)
_cell_length_b 15.3039(2)
_cell_length_c 15.3039(2)
_cell_angle_alpha 90
_cell_angle_beta 90
_cell_angle_gamma 90
_cell_formula_units_Z 4
loop_
_atom_type_symbol
_atom_type_radius_bond
C 0.68
H 0.23
Cl 0.99
Co 1.26
N 0.68
loop_
_atom_site_label
_atom_site_type_symbol
_atom_site_fract_x
_atom_site_fract_y
_atom_site_fract_z
Co1 Co 0.868567(19) 0.368567(19) 0.131433(19)
Cl1 Cl 0.83102(4) 0.24382(4) 0.05923(4)
Cl2 Cl 0.95360(4) 0.45360(4) 0.04640(4)
Cl3 Cl 1.01943(3) 0.48057(3) 0.51943(3)
N1 N 0.88733(11) 0.61267(11) 0.38733(11)
N2 N 1.03958(12) 0.50268(12) 0.31517(12)
H1 H 1.03480 0.50760 0.37360
H2 H 1.00980 0.45480 0.29850
C1 C 0.90331(15) 0.59158(15) 0.29415(14)
H3 H 0.87860 0.63750 0.25810
H4 H 0.87350 0.53750 0.27980
C2 C 0.99983(15) 0.58190(14) 0.27262(15)
H5 H 1.00680 0.57750 0.20980
H6 H 1.03080 0.63370 0.29200
C3 C 1.13240(15) 0.49216(15) 0.29176(15)
C4 C 1.19566(19) 0.5281(2) 0.3444(2)
H7 H 1.18070 0.55500 0.39680
C5 C 1.2835(2) 0.5235(3) 0.3175(3)
C6 C 1.30320(19) 0.4817(3) 0.2403(2)
H8 H 1.36130 0.47900 0.22260
C7 C 1.24038(16) 0.44385(17) 0.18807(17)
C8 C 1.15298(15) 0.45066(16) 0.21356(16)
H9 H 1.10900 0.42760 0.17860
C9 C 1.2655(2) 0.3992(2) 0.1044(2)
H10 H 1.28780 0.34200 0.11710
H11 H 1.30960 0.43290 0.07520
H12 H 1.21500 0.39430 0.06740
C10 C 1.3529(3) 0.5691(5) 0.3727(4)
H13 H 1.39200 0.52630 0.39670
H14 H 1.32510 0.60050 0.41940
H15 H 1.38520 0.60920 0.33680
Cl1G Cl 0.94077(4) 0.33102(4) 0.25618(4)
Cl1J Cl 0.74382(4) 0.44077(4) 0.16898(4)
N2E N 0.81517(12) 0.46042(12) 0.49732(12)
H1E H 0.87360 0.46520 0.49240
H2E H 0.79850 0.49020 0.54520
C1E C 0.79415(15) 0.59669(15) 0.40842(14)
H3E H 0.75810 0.62140 0.36250
H4E H 0.77980 0.62650 0.46250
C2E C 0.77262(15) 0.50017(14) 0.41810(15)
H5E H 0.70980 0.49320 0.42250
H6E H 0.79200 0.46920 0.36630
C3E C 0.79176(15) 0.36760(15) 0.50784(15)
C4E C 0.84440(19) 0.30434(20) 0.4719(2)
H7E H 0.89680 0.31930 0.44500
C5E C 0.8175(2) 0.2165(3) 0.4765(3)
C6E C 0.74030(19) 0.1968(3) 0.5183(2)
H8E H 0.72260 0.13870 0.52100
C7E C 0.68807(16) 0.25962(17) 0.55615(17)
C8E C 0.71356(15) 0.34702(16) 0.54934(16)
H9E H 0.67860 0.39100 0.57240
C9E C 0.6044(2) 0.2345(2) 0.6008(2)
H10E H 0.61710 0.21220 0.65800
H11E H 0.57520 0.19040 0.56710
H12E H 0.56740 0.28500 0.60570
C10E C 0.8727(3) 0.1471(5) 0.4309(4)
H13E H 0.89670 0.10800 0.47370
H14E H 0.91940 0.17490 0.39950
H15E H 0.83680 0.11480 0.39080
N2K N 0.99732(12) 0.68483(12) 0.53958(12)
H1K H 0.99240 0.62640 0.53480
H2K H 1.04520 0.70150 0.50980
C1K C 0.90842(15) 0.70585(15) 0.40331(14)
H3K H 0.86250 0.74190 0.37860
H4K H 0.96250 0.72020 0.37350
C2K C 0.91810(15) 0.72738(14) 0.49983(15)
H5K H 0.92250 0.79020 0.50680
H6K H 0.86630 0.70800 0.53080
C3K C 1.00784(15) 0.70824(15) 0.63240(15)
C4K C 0.97190(19) 0.6556(2) 0.69566(20)
H7K H 0.94500 0.60320 0.68070
C5K C 0.9765(2) 0.6825(3) 0.7835(3)
C6K C 1.01830(19) 0.7597(3) 0.8032(2)
H8K H 1.02100 0.77740 0.86130
C7K C 1.05615(16) 0.81193(17) 0.74038(17)
C8K C 1.04934(15) 0.78644(16) 0.65298(16)
H9K H 1.07240 0.82140 0.60900
C9K C 1.1008(2) 0.8956(2) 0.7655(2)
H10K H 1.15800 0.88290 0.78780
H11K H 1.06710 0.92480 0.80960
H12K H 1.10570 0.93260 0.71500
C10K C 0.9309(3) 0.6273(5) 0.8529(4)
H13K H 0.97370 0.60330 0.89200
H14K H 0.89950 0.58060 0.82510
H15K H 0.89080 0.66320 0.88520
#END

data_CSD_CIF_BUKSAC
_audit_creation_date 2010-08-15
_audit_creation_method CSD-ConQuest-V1
_database_code_CSD BUKSAC
_database_code_depnum_ccdc_archive 'CCDC 676655; not CCDC 637068 as published'
_chemical_formula_sum 'C30 H69 Cl3 N12 Ni3 O12 S3'
_chemical_formula_moiety
;
C30 H69 N12 Ni3 S3 3+,3(Cl1 O4 1-)
;
_journal_coden_Cambridge 1290
_journal_year 2009
_journal_page_first 5475
_journal_name_full 'Eur.J.Inorg.Chem. '
loop_
_publ_author_name
"P.Kopel"
"J.Mrozinski"
"K.Dolezal"
"V.Langer"
"R.Boca"
"A.Bienko"
"A.Pochaba"
_chemical_name_systematic
;
(\m~3~-1,3,5-Triazin-2,4,6-trithiolato-N,S:N'S':N'',S'')-tris( 
N,N,N',N'',N''-pentamethyldiethylenetriamine-N,N',N'')-tri-nickel(ii) 
triperchlorate
;
_cell_volume   5250.242
_exptl_crystal_colour 'green'
_exptl_crystal_density_diffrn 1.478
_exptl_crystal_description 'block'
_diffrn_ambient_temperature 173
#These two values have been output from a single CSD field.
_refine_ls_R_factor_gt 0.0378
_refine_ls_wR_factor_gt 0.0378
_symmetry_cell_setting cubic
_symmetry_space_group_name_H-M 'P 21 3'
_symmetry_Int_Tables_number 198
loop_
_symmetry_equiv_pos_site_id
_symmetry_equiv_pos_as_xyz
1 x,y,z
2 1/2-x,-y,1/2+z
3 -x,1/2+y,1/2-z
4 1/2+x,1/2-y,-z
5 z,x,y
6 1/2+z,1/2-x,-y
7 1/2-z,-x,1/2+y
8 -z,1/2+x,1/2-y
9 y,z,x
10 -y,1/2+z,1/2-x
11 1/2+y,1/2-z,-x
12 1/2-y,-z,1/2+x
_cell_length_a 17.3804(3)
_cell_length_b 17.3804(3)
_cell_length_c 17.3804(3)
_cell_angle_alpha 90
_cell_angle_beta 90
_cell_angle_gamma 90
_cell_formula_units_Z 4
loop_
_atom_type_symbol
_atom_type_radius_bond
C 0.68
H 0.23
Cl 0.99
N 0.68
Ni 1.24
O 0.68
S 1.02
loop_
_atom_site_label
_atom_site_type_symbol
_atom_site_fract_x
_atom_site_fract_y
_atom_site_fract_z
Ni1 Ni 0.92089(2) 0.51630(2) 0.80210(2)
S1 S 0.93871(5) 0.68419(5) 0.96697(5)
N1 N 0.99149(15) 0.55609(15) 0.89738(15)
C1 C 0.99976(16) 0.60735(17) 0.95463(17)
N2 N 0.82530(17) 0.48045(19) 0.86512(17)
N3 N 0.86435(18) 0.46355(17) 0.70626(18)
N4 N 0.91589(18) 0.61732(17) 0.73709(16)
C2 C 0.7934(3) 0.5392(3) 0.9188(4)
H1 H 0.75020 0.51690 0.94750
H2 H 0.77530 0.58380 0.88940
H3 H 0.83350 0.55550 0.95490
C3 C 0.8450(3) 0.4141(4) 0.9114(4)
H4 H 0.79920 0.39620 0.93900
H5 H 0.88500 0.42830 0.94860
H6 H 0.86420 0.37290 0.87800
C4 C 0.7646(3) 0.4642(3) 0.8072(3)
H7 H 0.74040 0.51330 0.79140
H8 H 0.72440 0.43170 0.83100
C5 C 0.7949(3) 0.4249(3) 0.7384(3)
H9 H 0.80810 0.37120 0.75200
H10 H 0.75430 0.42330 0.69850
C6 C 0.9106(3) 0.4073(3) 0.6625(3)
H11 H 0.92800 0.36630 0.69700
H12 H 0.95540 0.43320 0.64010
H13 H 0.87920 0.38510 0.62130
C7 C 0.8410(3) 0.5289(3) 0.6560(2)
H14 H 0.83390 0.51050 0.60260
H15 H 0.79130 0.55020 0.67410
C8 C 0.9010(3) 0.5901(3) 0.6578(2)
H16 H 0.88410 0.63410 0.62570
H17 H 0.94940 0.56970 0.63550
C9 C 0.8563(3) 0.6732(2) 0.7620(3)
H18 H 0.86700 0.68980 0.81480
H19 H 0.80550 0.64860 0.76000
H20 H 0.85690 0.71790 0.72780
C10 C 0.9915(3) 0.6572(3) 0.7405(3)
H21 H 0.99050 0.70230 0.70670
H22 H 1.03220 0.62200 0.72360
H23 H 1.00170 0.67370 0.79350
Cl1 Cl 0.19720(5) 0.69720(5) 0.80280(5)
O1 O 0.15036(17) 0.73327(17) 0.74393(17)
O2 O 0.14961(17) 0.64961(17) 0.85039(17)
Cl2 Cl 0.35617(5) 0.14383(5) 0.85617(5)
O3 O 0.3388(2) 0.1034(2) 0.78638(18)
O4 O 0.4035(2) 0.0965(2) 0.9035(2)
Cl3 Cl 0.93801(5) 0.56199(5) 0.43801(5)
O5 O 0.8645(2) 0.5729(3) 0.4730(2)
O6 O 0.9842(2) 0.5158(2) 0.4842(2)
Ni1G Ni 1.19790(2) 0.42089(2) 0.98370(2)
Ni1J Ni 1.01630(2) 0.69790(2) 1.07911(2)
S1G S 1.03303(5) 0.43871(5) 0.81581(5)
S1J S 1.18419(5) 0.53303(5) 1.06129(5)
N1G N 1.10262(15) 0.49149(15) 0.94391(15)
N1J N 1.05609(15) 0.60262(15) 1.00851(15)
C1G C 1.04537(16) 0.49976(17) 0.89265(17)
C1J C 1.10735(16) 0.54537(17) 1.00024(17)
N2G N 1.13488(17) 0.32530(19) 1.01955(17)
N2J N 0.98045(17) 0.63488(19) 1.17470(17)
N3G N 1.29374(18) 0.36435(17) 1.03645(18)
N3J N 0.96355(18) 0.79374(17) 1.13565(18)
N4G N 1.26291(18) 0.41589(17) 0.88268(16)
N4J N 1.11732(18) 0.76291(17) 1.08411(16)
C2G C 1.0812(3) 0.2934(3) 0.9608(4)
C2J C 1.0392(3) 0.5812(3) 1.2066(4)
H1G H 1.05250 0.25020 0.98310
H1J H 1.01690 0.55250 1.24980
H2G H 1.11060 0.27530 0.91620
H2J H 1.08380 0.61060 1.22470
H3G H 1.04510 0.33350 0.94450
H3J H 1.05550 0.54510 1.16650
C3G C 1.0886(3) 0.3450(4) 1.0859(4)
C3J C 0.9141(3) 0.5886(4) 1.1550(4)
H4G H 1.06100 0.29920 1.10380
H4J H 0.89620 0.56100 1.20080
H5G H 1.05140 0.38500 1.07170
H5J H 0.92830 0.55140 1.11500
H6G H 1.12200 0.36420 1.12710
H6J H 0.87290 0.62200 1.13580
C4G C 1.1928(3) 0.2646(3) 1.0358(3)
C4J C 0.9642(3) 0.6928(3) 1.2354(3)
H7G H 1.20860 0.24040 0.98670
H7J H 1.01330 0.70860 1.25960
H8G H 1.16900 0.22440 1.06830
H8J H 0.93170 0.66900 1.27560
C5G C 1.2616(3) 0.2949(3) 1.0751(3)
C5J C 0.9249(3) 0.7616(3) 1.2051(3)
H9G H 1.24800 0.30810 1.12880
H9J H 0.87120 0.74800 1.19190
H10G H 1.30150 0.25430 1.07670
H10J H 0.92330 0.80150 1.24570
C6G C 1.3375(3) 0.4106(3) 1.0927(3)
C6J C 0.9073(3) 0.8375(3) 1.0894(3)
H11G H 1.30300 0.42800 1.13370
H11J H 0.86630 0.80300 1.07200
H12G H 1.35990 0.45540 1.06680
H12J H 0.93320 0.85990 1.04460
H13G H 1.37870 0.37920 1.11490
H13J H 0.88510 0.87870 1.12080
C7G C 1.3440(3) 0.3410(3) 0.9711(2)
C7J C 1.0289(3) 0.8440(3) 1.1590(2)
H14G H 1.39740 0.33390 0.98950
H14J H 1.01050 0.89740 1.16610
H15G H 1.32590 0.29130 0.94980
H15J H 1.05020 0.82590 1.20870
C8G C 1.3422(3) 0.4010(3) 0.9099(2)
C8J C 1.0901(3) 0.8422(3) 1.0990(2)
H16G H 1.37430 0.38410 0.86590
H16J H 1.13410 0.87430 1.11590
H17G H 1.36450 0.44940 0.93030
H17J H 1.06970 0.86450 1.05060
C9G C 1.2380(3) 0.3563(2) 0.8268(3)
C9J C 1.1732(3) 0.7380(2) 1.1437(3)
H18G H 1.18520 0.36700 0.81020
H18J H 1.18980 0.68520 1.13300
H19G H 1.24000 0.30550 0.85140
H19J H 1.14860 0.74000 1.19450
H20G H 1.27220 0.35690 0.78210
H20J H 1.21790 0.77220 1.14310
C10G C 1.2595(3) 0.4915(3) 0.8428(3)
C10J C 1.1572(3) 0.7595(3) 1.0085(3)
H21G H 1.29330 0.49050 0.79770
H21J H 1.20230 0.79330 1.00950
H22G H 1.27640 0.53220 0.87800
H22J H 1.12200 0.77640 0.96780
H23G H 1.20650 0.50170 0.82630
H23J H 1.17370 0.70650 0.99830
O1G O 0.25607(17) 0.65036(17) 0.76673(17)
O1J O 0.23327(17) 0.75607(17) 0.84964(17)
O3E O 0.28638(20) 0.1612(2) 0.89660(18)
O3K O 0.3966(2) 0.21362(20) 0.83880(18)
O5E O 0.9730(2) 0.6355(3) 0.4271(2)
O5K O 0.9271(2) 0.5270(3) 0.3645(2)
#END

data_CSD_CIF_BURVOC
_audit_creation_date 2020-05-30
_audit_creation_method CSD-ConQuest-V1
_database_code_CSD BURVOC
_database_code_depnum_ccdc_archive 'CCDC 1910960'
_chemical_formula_sum 'C6 H21 F3 N4'
_chemical_formula_moiety
;
C6 H21 N4 3+,3(F1 1-)
;
_journal_coden_Cambridge 1078
_journal_year 2020
_journal_name_full 'CSD Communication(Private Communication) '
loop_
_publ_author_name
"A.Peloquin"
"S.Iacono"
_chemical_name_systematic
;
2,2',2''-nitrilotris(ethan-1-aminium) trifluoride
;
_cell_volume   1051.376
_exptl_crystal_colour 'colorless'
_exptl_crystal_density_diffrn 1.303
_exptl_crystal_description 'hexagonal prism'
_exptl_crystal_preparation 'Re-crystallisation from solvent'
_diffrn_ambient_temperature 100
#These two values have been output from a single CSD field.
_refine_ls_R_factor_gt 0.0442
_refine_ls_wR_factor_gt 0.0442
_symmetry_cell_setting cubic
_symmetry_space_group_name_H-M 'P 21 3'
_symmetry_Int_Tables_number 198
loop_
_symmetry_equiv_pos_site_id
_symmetry_equiv_pos_as_xyz
1 x,y,z
2 1/2-x,-y,1/2+z
3 -x,1/2+y,1/2-z
4 1/2+x,1/2-y,-z
5 z,x,y
6 1/2+z,1/2-x,-y
7 1/2-z,-x,1/2+y
8 -z,1/2+x,1/2-y
9 y,z,x
10 -y,1/2+z,1/2-x
11 1/2+y,1/2-z,-x
12 1/2-y,-z,1/2+x
_cell_length_a 10.1684(2)
_cell_length_b 10.1684(2)
_cell_length_c 10.1684(2)
_cell_angle_alpha 90
_cell_angle_beta 90
_cell_angle_gamma 90
_cell_formula_units_Z 4
loop_
_atom_type_symbol
_atom_type_radius_bond
C 0.68
H 0.23
F 0.64
N 0.68
loop_
_atom_site_label
_atom_site_type_symbol
_atom_site_fract_x
_atom_site_fract_y
_atom_site_fract_z
F1 F 0.32577(11) 0.32577(11) 0.32577(11)
H1 H 0.362(3) 0.248(3) 0.616(3)
H2 H 0.422(3) 0.136(3) 0.548(3)
H3 H 0.393(4) 0.260(4) 0.465(4)
N1 N 0.50347(15) 0.50347(15) 0.50347(15)
N2 N 0.41735(16) 0.22525(16) 0.55098(17)
C1 C 0.5339(2) 0.42704(19) 0.62194(19)
H4 H 0.46327 0.43978 0.68774
H5 H 0.61729 0.45905 0.66063
C2 C 0.54646(18) 0.28160(19) 0.58996(19)
H6 H 0.61023 0.26978 0.51735
H7 H 0.58036 0.23409 0.66789
F2 F 0.47313(12) -0.02687(12) 0.52687(12)
F3 F 0.23395(14) 0.26605(14) 0.73395(14)
H1D H 0.616(3) 0.362(3) 0.248(3)
H2D H 0.548(3) 0.422(3) 0.136(3)
H3D H 0.465(4) 0.393(4) 0.260(4)
N2D N 0.55098(16) 0.41735(16) 0.22525(17)
C1D C 0.62194(20) 0.53390(19) 0.42704(19)
H4D H 0.68774 0.46327 0.43978
H5D H 0.66063 0.61729 0.45905
C2D C 0.58996(18) 0.54646(19) 0.28160(19)
H6D H 0.51735 0.61023 0.26978
H7D H 0.66789 0.58036 0.23409
H1H H 0.248(3) 0.616(3) 0.362(3)
H2H H 0.136(3) 0.548(3) 0.422(3)
H3H H 0.260(4) 0.465(4) 0.393(4)
N2H N 0.22525(16) 0.55098(16) 0.41735(17)
C1H C 0.42704(20) 0.62194(19) 0.53390(19)
H4H H 0.43978 0.68774 0.46327
H5H H 0.45905 0.66063 0.61729
C2H C 0.28160(18) 0.58996(19) 0.54646(19)
H6H H 0.26978 0.51735 0.61023
H7H H 0.23409 0.66789 0.58036
#END

data_CSD_CIF_CEFPIM
_audit_creation_date 1984-10-09
_audit_creation_method CSD-ConQuest-V1
_database_code_CSD CEFPIM
_database_code_depnum_ccdc_archive 'CCDC 1122299'
_chemical_formula_sum 'C54 H54 N1 Ni1 P7 Se3'
_chemical_formula_moiety
;
C42 H42 N1 Ni1 P7 Se3,2(C6 H6)
;
_journal_coden_Cambridge 36
_journal_volume 258
_journal_year 1983
_journal_page_first 373
_journal_name_full 'J.Organomet.Chem. '
loop_
_publ_author_name
"M.Di Vaira"
"M.Peruzzini"
"P.Stoppioni"
_chemical_name_systematic
;
tris(2-Diphenylphosphinoethyl)amine-(tetraphosphorus-triselenide-P)-nickel 
benzene solvate
;
_cell_volume   5279.840
_exptl_crystal_density_diffrn 1.546
_diffrn_ambient_temperature ?
_diffrn_special_details
;
The study was carried out at room temperature,in the range 283-303K

;
#These two values have been output from a single CSD field.
_refine_ls_R_factor_gt 0.05
_refine_ls_wR_factor_gt 0.05
_symmetry_cell_setting cubic
_symmetry_space_group_name_H-M 'P 21 3'
_symmetry_Int_Tables_number 198
loop_
_symmetry_equiv_pos_site_id
_symmetry_equiv_pos_as_xyz
1 x,y,z
2 z,x,y
3 y,z,x
4 1/2+x,1/2-y,-z
5 1/2+z,1/2-x,-y
6 1/2+y,1/2-z,-x
7 -x,1/2+y,1/2-z
8 -z,1/2+x,1/2-y
9 -y,1/2+z,1/2-x
10 1/2-x,-y,1/2+z
11 1/2-z,-x,1/2+y
12 1/2-y,-z,1/2+x
_cell_length_a 17.413(7)
_cell_length_b 17.413(7)
_cell_length_c 17.413(7)
_cell_angle_alpha 90
_cell_angle_beta 90
_cell_angle_gamma 90
_cell_formula_units_Z 4
loop_
_atom_type_symbol
_atom_type_radius_bond
C 0.68
H 0.23
N 0.68
Ni 1.42
P 1.05
Se 1.22
loop_
_atom_site_label
_atom_site_type_symbol
_atom_site_fract_x
_atom_site_fract_y
_atom_site_fract_z
Ni1 Ni 0.03490 0.03490 0.03490
Se1 Se -0.15470 -0.06680 0.00470
P1 P 0.05190 -0.02070 0.15000
P2 P -0.03390 -0.03390 -0.03390
P3 P -0.19600 -0.13960 -0.09290
N1 N 0.13850 0.13850 0.13850
C1 C 0.14020 0.01150 0.20030
C2 C 0.14310 0.09780 0.21330
C3 C 0.05790 -0.12710 0.15620
C4 C -0.00400 -0.16950 0.14150
C5 C -0.00550 -0.24970 0.14560
C6 C 0.06450 -0.28670 0.15970
C7 C 0.12680 -0.24820 0.17580
C8 C 0.12540 -0.16610 0.17370
C9 C -0.02070 -0.00890 0.22470
C10 C -0.09270 0.01570 0.20640
C11 C -0.15100 0.02000 0.26180
C12 C -0.13800 -0.00150 0.33590
C13 C -0.06630 -0.02500 0.35590
C14 C -0.00610 -0.03170 0.30240
H1 H 0.18560 -0.00380 0.16870
H2 H 0.14260 -0.01480 0.25130
H3 H 0.19240 0.11140 0.23940
H4 H 0.09890 0.11360 0.24640
H5 H -0.05240 -0.14230 0.12680
H6 H -0.05430 -0.27930 0.13880
H7 H 0.06690 -0.34410 0.15730
H8 H 0.17520 -0.27590 0.18950
H9 H 0.17330 -0.13640 0.18500
H10 H -0.10420 0.03110 0.15220
H11 H -0.20300 0.03910 0.24670
H12 H -0.18020 0.00000 0.37470
H13 H -0.05590 -0.03800 0.41080
H14 H 0.04540 -0.05170 0.31810
C15 C 0.33820 0.22900 0.27110
C16 C 0.28620 0.22110 0.33090
H15 H 0.38280 0.19380 0.26830
H16 H 0.28990 0.17700 0.36710
C17 C 0.44510 0.36260 0.45370
C18 C 0.37980 0.39470 0.47740
H17 H 0.47390 0.32440 0.48570
H18 H 0.35080 0.36930 0.51510
Se1A Se 0.00470 -0.15470 -0.06680
P3A P -0.09290 -0.19600 -0.13960
Se1B Se -0.06680 0.00470 -0.15470
P3B P -0.13960 -0.09290 -0.19600
P1A P 0.15000 0.05190 -0.02070
C1A C 0.20030 0.14020 0.01150
C2A C 0.21330 0.14310 0.09780
C3A C 0.15620 0.05790 -0.12710
C4A C 0.14150 -0.00400 -0.16950
C5A C 0.14560 -0.00550 -0.24970
C6A C 0.15970 0.06450 -0.28670
C7A C 0.17580 0.12680 -0.24820
C8A C 0.17370 0.12540 -0.16610
C9A C 0.22470 -0.02070 -0.00890
C10A C 0.20640 -0.09270 0.01570
C11A C 0.26180 -0.15100 0.02000
C12A C 0.33590 -0.13800 -0.00150
C13A C 0.35590 -0.06630 -0.02500
C14A C 0.30240 -0.00610 -0.03170
H1A H 0.16870 0.18560 -0.00380
H2A H 0.25130 0.14260 -0.01480
H3A H 0.23940 0.19240 0.11140
H4A H 0.24640 0.09890 0.11360
H5A H 0.12680 -0.05240 -0.14230
H6A H 0.13880 -0.05430 -0.27930
H7A H 0.15730 0.06690 -0.34410
H8A H 0.18950 0.17520 -0.27590
H9A H 0.18500 0.17330 -0.13640
H10A H 0.15220 -0.10420 0.03110
H11A H 0.24670 -0.20300 0.03910
H12A H 0.37470 -0.18020 0.00000
H13A H 0.41080 -0.05590 -0.03800
H14A H 0.31810 0.04540 -0.05170
P1B P -0.02070 0.15000 0.05190
C1B C 0.01150 0.20030 0.14020
C2B C 0.09780 0.21330 0.14310
C3B C -0.12710 0.15620 0.05790
C4B C -0.16950 0.14150 -0.00400
C5B C -0.24970 0.14560 -0.00550
C6B C -0.28670 0.15970 0.06450
C7B C -0.24820 0.17580 0.12680
C8B C -0.16610 0.17370 0.12540
C9B C -0.00890 0.22470 -0.02070
C10B C 0.01570 0.20640 -0.09270
C11B C 0.02000 0.26180 -0.15100
C12B C -0.00150 0.33590 -0.13800
C13B C -0.02500 0.35590 -0.06630
C14B C -0.03170 0.30240 -0.00610
H1B H -0.00380 0.16870 0.18560
H2B H -0.01480 0.25130 0.14260
H3B H 0.11140 0.23940 0.19240
H4B H 0.11360 0.24640 0.09890
H5B H -0.14230 0.12680 -0.05240
H6B H -0.27930 0.13880 -0.05430
H7B H -0.34410 0.15730 0.06690
H8B H -0.27590 0.18950 0.17520
H9B H -0.13640 0.18500 0.17330
H10B H 0.03110 0.15220 -0.10420
H11B H 0.03910 0.24670 -0.20300
H12B H 0.00000 0.37470 -0.18020
H13B H -0.03800 0.41080 -0.05590
H14B H -0.05170 0.31810 0.04540
C15A C 0.27110 0.33820 0.22900
C16A C 0.33090 0.28620 0.22110
H15A H 0.26830 0.38280 0.19380
H16A H 0.36710 0.28990 0.17700
C15B C 0.22900 0.27110 0.33820
C16B C 0.22110 0.33090 0.28620
H15B H 0.19380 0.26830 0.38280
H16B H 0.17700 0.36710 0.28990
C17A C 0.45370 0.44510 0.36260
C18A C 0.47740 0.37980 0.39470
H17A H 0.48570 0.47390 0.32440
H18A H 0.51510 0.35080 0.36930
C17B C 0.36260 0.45370 0.44510
C18B C 0.39470 0.47740 0.37980
H17B H 0.32440 0.48570 0.47390
H18B H 0.36930 0.51510 0.35080
#END

data_CSD_CIF_CORQAC
_audit_creation_date 2009-07-17
_audit_creation_method CSD-ConQuest-V1
_database_code_CSD CORQAC
_database_code_depnum_ccdc_archive 'CCDC 697023'
_chemical_formula_sum 'C38 H36 Cl4 P2 Zn1'
_chemical_formula_moiety
;
2(C19 H18 P1 1+),Cl4 Zn1 2-
;
_journal_coden_Cambridge 182
_journal_year 2009
_journal_page_first 890
_journal_name_full 'Chem.Commun. '
loop_
_publ_author_name
"R.Pattacini"
"Suyun Jie"
"P.Braunstein"
_chemical_name_systematic
;
bis(Methyl(triphenyl)phosphonium) tetrachloro-zinc(ii)
;
_cell_volume   3664.230
_exptl_crystal_colour 'colorless'
_exptl_crystal_density_diffrn 1.381
_exptl_crystal_description 'prism'
_diffrn_ambient_temperature 173
#These two values have been output from a single CSD field.
_refine_ls_R_factor_gt 0.0456
_refine_ls_wR_factor_gt 0.0456
_symmetry_cell_setting cubic
_symmetry_space_group_name_H-M 'P 21 3'
_symmetry_Int_Tables_number 198
loop_
_symmetry_equiv_pos_site_id
_symmetry_equiv_pos_as_xyz
1 x,y,z
2 1/2-x,-y,1/2+z
3 1/2+x,1/2-y,-z
4 -x,1/2+y,1/2-z
5 z,x,y
6 y,z,x
7 1/2-z,-x,1/2+y
8 -y,1/2+z,1/2-x
9 1/2+z,1/2-x,-y
10 1/2-y,-z,1/2+x
11 -z,1/2+x,1/2-y
12 1/2+y,1/2-z,-x
_cell_length_a 15.4168(6)
_cell_length_b 15.4168(6)
_cell_length_c 15.4168(6)
_cell_angle_alpha 90
_cell_angle_beta 90
_cell_angle_gamma 90
_cell_formula_units_Z 4
loop_
_atom_type_symbol
_atom_type_radius_bond
C 0.68
H 0.23
Cl 0.99
P 1.05
Zn 1.22
loop_
_atom_site_label
_atom_site_type_symbol
_atom_site_fract_x
_atom_site_fract_y
_atom_site_fract_z
Zn1 Zn -0.19051(3) 0.30949(3) 0.19051(3)
Cl1 Cl -0.27511(6) 0.22489(6) 0.27511(6)
Cl2 Cl -0.15556(6) 0.43369(6) 0.26400(6)
P1 P 0.24233(6) 0.24233(6) 0.24233(6)
C1 C 0.1750(2) 0.1750(2) 0.1750(2)
H1 H 0.11670 0.17570 0.19670
C2 C 0.2439(2) 0.2006(2) 0.3508(2)
C3 C 0.2273(3) 0.1134(2) 0.3668(3)
H2 H 0.21180 0.07710 0.32120
C4 C 0.2337(3) 0.0804(3) 0.4490(3)
H3 H 0.22210 0.02200 0.45900
C5 C 0.2571(3) 0.1334(3) 0.5164(3)
H4 H 0.26190 0.11050 0.57200
C6 C 0.2735(3) 0.2199(3) 0.5029(3)
H5 H 0.28940 0.25540 0.54900
C7 C 0.2663(3) 0.2539(3) 0.4202(2)
H6 H 0.27640 0.31270 0.41090
P2 P 0.03335(6) 0.46665(6) 0.53335(6)
C8 C -0.0338(2) 0.5338(2) 0.4662(2)
H7 H -0.09060 0.50870 0.46210
C9 C 0.0208(2) 0.3553(2) 0.5013(2)
C10 C -0.0090(3) 0.3330(3) 0.4205(2)
H8 H -0.02630 0.37620 0.38210
C11 C -0.0137(3) 0.2466(3) 0.3953(3)
H9 H -0.03390 0.23240 0.34020
C12 C 0.0114(3) 0.1820(3) 0.4513(3)
H10 H 0.00900 0.12430 0.43400
C13 C 0.0399(3) 0.2032(3) 0.5329(3)
H11 H 0.05630 0.15960 0.57110
C14 C 0.0446(3) 0.2891(2) 0.5586(3)
H12 H 0.06350 0.30280 0.61420
Cl2J Cl -0.26400(6) 0.34444(6) 0.06631(6)
Cl2K Cl -0.06631(6) 0.23600(6) 0.15556(6)
H1D H 0.19670 0.11670 0.17570
H1E H 0.17570 0.19670 0.11670
C2D C 0.3508(2) 0.2439(2) 0.2006(2)
C2E C 0.2006(2) 0.3508(2) 0.2439(2)
C3D C 0.3668(3) 0.2273(2) 0.1134(3)
C3E C 0.1134(3) 0.3668(2) 0.2273(3)
H2D H 0.32120 0.21180 0.07710
H2E H 0.07710 0.32120 0.21180
C4D C 0.4490(3) 0.2337(3) 0.0804(3)
C4E C 0.0804(3) 0.4490(3) 0.2337(3)
H3D H 0.45900 0.22210 0.02200
H3E H 0.02200 0.45900 0.22210
C5D C 0.5164(3) 0.2571(3) 0.1334(3)
C5E C 0.1334(3) 0.5164(3) 0.2571(3)
H4D H 0.57200 0.26190 0.11050
H4E H 0.11050 0.57200 0.26190
C6D C 0.5029(3) 0.2735(3) 0.2199(3)
C6E C 0.2199(3) 0.5029(3) 0.2735(3)
H5D H 0.54900 0.28940 0.25540
H5E H 0.25540 0.54900 0.28940
C7D C 0.4202(3) 0.2663(3) 0.2539(2)
C7E C 0.2539(3) 0.4202(3) 0.2663(2)
H6D H 0.41090 0.27640 0.31270
H6E H 0.31270 0.41090 0.27640
H7H H -0.03790 0.59060 0.49130
H7I H -0.00870 0.53790 0.40940
C9H C 0.0013(2) 0.4792(2) 0.6447(2)
C9I C 0.1447(2) 0.4987(2) 0.5208(2)
C10H C -0.0795(3) 0.5090(3) 0.6670(2)
C10I C 0.1670(3) 0.5795(3) 0.4910(2)
H8H H -0.11790 0.52630 0.62380
H8I H 0.12380 0.61790 0.47370
C11H C -0.1047(3) 0.5137(3) 0.7534(3)
C11I C 0.2534(3) 0.6047(3) 0.4863(3)
H9H H -0.15980 0.53390 0.76760
H9I H 0.26760 0.65980 0.46610
C12H C -0.0487(3) 0.4886(3) 0.8180(3)
C12I C 0.3180(3) 0.5487(3) 0.5114(3)
H10H H -0.06600 0.49100 0.87570
H10I H 0.37570 0.56600 0.50900
C13H C 0.0329(3) 0.4601(3) 0.7968(3)
C13I C 0.2968(3) 0.4671(3) 0.5399(3)
H11H H 0.07110 0.44370 0.84040
H11I H 0.34040 0.42890 0.55630
C14H C 0.0586(3) 0.4554(2) 0.7109(3)
C14I C 0.2109(3) 0.4414(2) 0.5446(3)
H12H H 0.11420 0.43650 0.69720
H12I H 0.19720 0.38580 0.56350
#END

data_CSD_CIF_DACGIA
_audit_creation_date 2015-11-23
_audit_creation_method CSD-ConQuest-V1
_database_code_CSD DACGIA
_database_code_depnum_ccdc_archive 'CCDC 1429472'
_chemical_formula_sum 'C57 H66 Co1 N6 O16 U2'
_chemical_formula_moiety
;
C27 H42 O16 U2 2-,C30 H24 Co1 N6 2+
;
_journal_coden_Cambridge 9
_journal_volume 54
_journal_year 2015
_journal_page_first 10539
_journal_name_full 'Inorg.Chem. '
loop_
_publ_author_name
"P.Thuery"
"J.Harrowfield"
_chemical_name_systematic
;
tris(\m-nonanedioato)-tetraoxo-di-uranium tris(2,2'-bipyridine)-cobalt
;
_cell_volume   6031.251
_exptl_crystal_colour 'light orange'
_exptl_crystal_density_diffrn 1.791
_exptl_crystal_description 'parallelepiped'
_diffrn_ambient_temperature 150
_diffrn_special_details
;
twin

;
#These two values have been output from a single CSD field.
_refine_ls_R_factor_gt 0.03
_refine_ls_wR_factor_gt 0.03
_symmetry_cell_setting cubic
_symmetry_space_group_name_H-M 'P 21 3'
_symmetry_Int_Tables_number 198
loop_
_symmetry_equiv_pos_site_id
_symmetry_equiv_pos_as_xyz
1 x,y,z
2 1/2-x,-y,1/2+z
3 -x,1/2+y,1/2-z
4 1/2+x,1/2-y,-z
5 z,x,y
6 1/2+z,1/2-x,-y
7 1/2-z,-x,1/2+y
8 -z,1/2+x,1/2-y
9 y,z,x
10 -y,1/2+z,1/2-x
11 1/2+y,1/2-z,-x
12 1/2-y,-z,1/2+x
_cell_length_a 18.2027(2)
_cell_length_b 18.2027(2)
_cell_length_c 18.2027(2)
_cell_angle_alpha 90
_cell_angle_beta 90
_cell_angle_gamma 90
_cell_formula_units_Z 4
loop_
_atom_type_symbol
_atom_type_radius_bond
C 0.68
H 0.23
Co 1.26
N 0.68
O 0.68
U 1.96
loop_
_atom_site_label
_atom_site_type_symbol
_atom_site_fract_x
_atom_site_fract_y
_atom_site_fract_z
U1 U 0.07093(2) 0.92907(2) 0.42907(2)
U2 U 0.31312(2) 0.68688(2) 0.18688(2)
O1 O 0.1276(3) 0.8724(3) 0.3724(3)
O2 O 0.0151(3) 0.9849(3) 0.4849(3)
O3 O 0.2573(3) 0.7427(3) 0.2427(3)
O4 O 0.3697(3) 0.6303(3) 0.1303(3)
O5 O 0.1373(4) 0.8848(4) 0.5388(3)
O6 O 0.0390(3) 0.8216(3) 0.5053(3)
O7 O 0.4031(4) 0.6707(4) 0.2866(4)
O8 O 0.3125(3) 0.5910(3) 0.2836(3)
C1 C 0.0947(5) 0.8311(5) 0.5473(6)
C2 C 0.1055(7) 0.7787(5) 0.6109(6)
H1 H 0.07140 0.73660 0.60660
H2 H 0.09570 0.80410 0.65800
C3 C 0.1866(6) 0.7513(6) 0.6087(6)
H3 H 0.21990 0.79400 0.61310
H4 H 0.19550 0.71870 0.65130
C4 C 0.2050(6) 0.7092(6) 0.5375(6)
H5 H 0.17160 0.66650 0.53380
H6 H 0.19460 0.74180 0.49520
C5 C 0.2812(6) 0.6828(8) 0.5313(6)
H7 H 0.29110 0.64970 0.57330
H8 H 0.31440 0.72560 0.53620
C6 C 0.3015(7) 0.6420(7) 0.4606(6)
H9 H 0.27490 0.59460 0.46020
H10 H 0.28340 0.67110 0.41840
C7 C 0.3798(8) 0.6271(10) 0.4492(6)
H11 H 0.39900 0.60180 0.49340
H12 H 0.40580 0.67470 0.44520
C8 C 0.3989(5) 0.5815(6) 0.3829(5)
H13 H 0.37770 0.53170 0.38870
H14 H 0.45290 0.57640 0.37960
C9 C 0.3700(5) 0.6157(5) 0.3125(5)
Co1 Co 0.00060(6) 0.49940(6) 0.50060(6)
N1 N 0.0464(3) 0.5840(3) 0.4344(4)
N2 N 0.0947(3) 0.4483(4) 0.4549(4)
C10 C 0.0176(5) 0.6525(5) 0.4254(5)
H15 H -0.02510 0.66500 0.45270
C11 C 0.0462(6) 0.7034(4) 0.3800(5)
H16 H 0.02490 0.75090 0.37640
C12 C 0.1073(6) 0.6850(6) 0.3386(6)
H17 H 0.12750 0.71910 0.30470
C13 C 0.1388(5) 0.6158(5) 0.3473(5)
H18 H 0.18120 0.60270 0.31990
C14 C 0.1078(5) 0.5658(4) 0.3966(4)
C15 C 0.1368(5) 0.4903(5) 0.4096(5)
C16 C 0.2027(5) 0.4674(6) 0.3821(6)
H19 H 0.23100 0.49850 0.35120
C17 C 0.2272(5) 0.3986(7) 0.4001(6)
H20 H 0.27390 0.38220 0.38350
C18 C 0.1832(6) 0.3526(5) 0.4429(6)
H21 H 0.19820 0.30370 0.45340
C19 C 0.1179(5) 0.3793(5) 0.4697(4)
H22 H 0.08810 0.34840 0.49950
O5F O -0.0388(4) 0.8627(4) 0.3848(3)
O6F O -0.0053(3) 0.9610(3) 0.3216(3)
O7F O 0.2134(4) 0.5969(4) 0.1707(4)
O8F O 0.2164(3) 0.6875(3) 0.0910(3)
C1F C -0.0473(5) 0.9053(5) 0.3311(6)
C2F C -0.1109(7) 0.8945(5) 0.2787(6)
H1F H -0.10660 0.92860 0.23660
H2F H -0.15800 0.90430 0.30410
C3F C -0.1087(6) 0.8134(6) 0.2513(6)
H3F H -0.11310 0.78010 0.29400
H4F H -0.15130 0.80450 0.21870
C4F C -0.0375(6) 0.7950(6) 0.2092(6)
H5F H -0.03380 0.82840 0.16650
H6F H 0.00480 0.80540 0.24180
C5F C -0.0313(6) 0.7188(8) 0.1828(6)
H7F H -0.07330 0.70890 0.14970
H8F H -0.03620 0.68560 0.22560
C6F C 0.0394(7) 0.6985(7) 0.1420(6)
H9F H 0.03980 0.72510 0.09460
H10F H 0.08160 0.71660 0.17110
C7F C 0.0508(8) 0.6202(10) 0.1271(6)
H11F H 0.00660 0.60100 0.10180
H12F H 0.05480 0.59420 0.17470
C8F C 0.1171(5) 0.6011(6) 0.0815(5)
H13F H 0.11130 0.62230 0.03170
H14F H 0.12040 0.54710 0.07640
C9F C 0.1875(5) 0.6300(5) 0.1157(5)
O5I O 0.1152(4) 1.0388(4) 0.3627(3)
O6I O 0.1784(3) 1.0053(3) 0.4610(3)
O7I O 0.3293(4) 0.7866(4) 0.0969(4)
O8I O 0.4090(3) 0.7836(3) 0.1875(3)
C1I C 0.1689(5) 1.0473(5) 0.4053(6)
C2I C 0.2213(7) 1.1109(5) 0.3945(6)
H1I H 0.26340 1.10660 0.42860
H2I H 0.19590 1.15800 0.40430
C3I C 0.2487(6) 1.1087(6) 0.3134(6)
H3I H 0.20600 1.11310 0.28010
H4I H 0.28130 1.15130 0.30450
C4I C 0.2908(6) 1.0375(6) 0.2950(6)
H5I H 0.33350 1.03380 0.32840
H6I H 0.25820 0.99520 0.30540
C5I C 0.3172(6) 1.0313(8) 0.2188(6)
H7I H 0.35030 1.07330 0.20890
H8I H 0.27440 1.03620 0.18560
C6I C 0.3580(7) 0.9606(7) 0.1985(6)
H9I H 0.40540 0.96020 0.22510
H10I H 0.32890 0.91840 0.21660
C7I C 0.3729(8) 0.9492(10) 0.1202(6)
H11I H 0.39820 0.99340 0.10100
H12I H 0.32530 0.94520 0.09420
C8I C 0.4185(5) 0.8829(6) 0.1011(5)
H13I H 0.46830 0.88870 0.12230
H14I H 0.42360 0.87960 0.04710
C9I C 0.3843(5) 0.8125(5) 0.1300(5)
N1E N -0.0656(3) 0.4536(3) 0.4160(4)
N2E N -0.0451(3) 0.4053(4) 0.5517(4)
C10E C -0.0746(5) 0.4824(5) 0.3475(5)
H15E H -0.04730 0.52510 0.33500
C11E C -0.1200(6) 0.4538(4) 0.2966(5)
H16E H -0.12360 0.47510 0.24910
C12E C -0.1614(6) 0.3927(6) 0.3150(6)
H17E H -0.19530 0.37250 0.28090
C13E C -0.1527(5) 0.3612(5) 0.3842(5)
H18E H -0.18010 0.31880 0.39730
C14E C -0.1034(5) 0.3922(4) 0.4342(4)
C15E C -0.0904(5) 0.3632(5) 0.5097(5)
C16E C -0.1179(5) 0.2973(6) 0.5326(6)
H19E H -0.14880 0.26900 0.50150
C17E C -0.0999(5) 0.2728(7) 0.6014(6)
H20E H -0.11650 0.22610 0.61780
C18E C -0.0571(6) 0.3168(5) 0.6474(6)
H21E H -0.04660 0.30180 0.69630
C19E C -0.0303(5) 0.3821(5) 0.6207(4)
H22E H -0.00050 0.41190 0.65160
N1K N -0.0840(3) 0.5656(3) 0.5464(4)
N2K N 0.0517(3) 0.5451(4) 0.5947(4)
C10K C -0.1525(5) 0.5746(5) 0.5176(5)
H15K H -0.16500 0.54730 0.47490
C11K C -0.2034(6) 0.6200(4) 0.5462(5)
H16K H -0.25090 0.62360 0.52490
C12K C -0.1850(6) 0.6614(6) 0.6073(6)
H17K H -0.21910 0.69530 0.62750
C13K C -0.1158(5) 0.6527(5) 0.6388(5)
H18K H -0.10270 0.68010 0.68120
C14K C -0.0658(5) 0.6034(4) 0.6078(4)
C15K C 0.0097(5) 0.5904(5) 0.6368(5)
C16K C 0.0326(5) 0.6179(6) 0.7027(6)
H19K H 0.00150 0.64880 0.73100
C17K C 0.1014(5) 0.5999(7) 0.7272(6)
H20K H 0.11780 0.61650 0.77390
C18K C 0.1474(6) 0.5571(5) 0.6832(6)
H21K H 0.19630 0.54660 0.69820
C19K C 0.1207(5) 0.5303(5) 0.6179(4)
H22K H 0.15160 0.50050 0.58810
#END

data_CSD_CIF_DACGOG
_audit_creation_date 2015-11-23
_audit_creation_method CSD-ConQuest-V1
_database_code_CSD DACGOG
_database_code_depnum_ccdc_archive 'CCDC 1429473'
_chemical_formula_sum 'C57 H66 N6 Ni1 O16 U2'
_chemical_formula_moiety
;
C27 H42 O16 U2 2-,C30 H24 N6 Ni1 2+
;
_journal_coden_Cambridge 9
_journal_volume 54
_journal_year 2015
_journal_page_first 10539
_journal_name_full 'Inorg.Chem. '
loop_
_publ_author_name
"P.Thuery"
"J.Harrowfield"
_chemical_name_systematic
;
tris(\m-nonanedioato)-tetraoxo-di-uranium tris(2,2'-bipyridine)-nickel
;
_cell_volume   6023.005
_exptl_crystal_colour 'light orange'
_exptl_crystal_density_diffrn 1.793
_exptl_crystal_description 'platelet'
_diffrn_ambient_temperature 150
_diffrn_special_details
;
twin

;
#These two values have been output from a single CSD field.
_refine_ls_R_factor_gt 0.03
_refine_ls_wR_factor_gt 0.03
_symmetry_cell_setting cubic
_symmetry_space_group_name_H-M 'P 21 3'
_symmetry_Int_Tables_number 198
loop_
_symmetry_equiv_pos_site_id
_symmetry_equiv_pos_as_xyz
1 x,y,z
2 1/2-x,-y,1/2+z
3 -x,1/2+y,1/2-z
4 1/2+x,1/2-y,-z
5 z,x,y
6 1/2+z,1/2-x,-y
7 1/2-z,-x,1/2+y
8 -z,1/2+x,1/2-y
9 y,z,x
10 -y,1/2+z,1/2-x
11 1/2+y,1/2-z,-x
12 1/2-y,-z,1/2+x
_cell_length_a 18.1944(2)
_cell_length_b 18.1944(2)
_cell_length_c 18.1944(2)
_cell_angle_alpha 90
_cell_angle_beta 90
_cell_angle_gamma 90
_cell_formula_units_Z 4
loop_
_atom_type_symbol
_atom_type_radius_bond
C 0.68
H 0.23
N 0.68
Ni 1.24
O 0.68
U 1.96
loop_
_atom_site_label
_atom_site_type_symbol
_atom_site_fract_x
_atom_site_fract_y
_atom_site_fract_z
U1 U 0.92994(2) 0.07006(2) 0.57006(2)
U2 U 0.68882(2) 0.31118(2) 0.81118(2)
O1 O 0.8734(3) 0.1266(3) 0.6266(3)
O2 O 0.9862(3) 0.0138(3) 0.5138(3)
O3 O 0.7451(3) 0.2549(3) 0.7549(3)
O4 O 0.6322(3) 0.3678(3) 0.8678(3)
O5 O 0.8649(3) 0.1155(3) 0.4600(3)
O6 O 0.9628(3) 0.1779(3) 0.4939(3)
O7 O 0.5996(3) 0.3287(3) 0.7109(3)
O8 O 0.6901(3) 0.4086(3) 0.7156(3)
C1 C 0.9078(4) 0.1686(4) 0.4521(5)
C2 C 0.8965(5) 0.2215(5) 0.3891(5)
H1 H 0.90670 0.19650 0.34190
H2 H 0.93070 0.26350 0.39390
C3 C 0.8154(5) 0.2498(5) 0.3900(5)
H3 H 0.80710 0.28250 0.34720
H4 H 0.78140 0.20750 0.38570
C4 C 0.7992(6) 0.2913(5) 0.4598(5)
H5 H 0.81070 0.25910 0.50220
H6 H 0.83240 0.33430 0.46250
C5 C 0.7215(5) 0.3175(7) 0.4671(5)
H7 H 0.68860 0.27430 0.46330
H8 H 0.71050 0.34980 0.42470
C6 C 0.7020(6) 0.3589(6) 0.5370(6)
H9 H 0.71960 0.32980 0.57940
H10 H 0.72940 0.40590 0.53700
C7 C 0.6236(6) 0.3753(8) 0.5483(5)
H11 H 0.59660 0.32810 0.55100
H12 H 0.60520 0.40200 0.50470
C8 C 0.6049(5) 0.4198(6) 0.6158(5)
H13 H 0.62670 0.46940 0.61120
H14 H 0.55090 0.42550 0.61910
C9 C 0.6328(4) 0.3840(5) 0.6852(5)
Ni1 Ni 1.00081(5) 0.49919(5) 0.50081(5)
N1 N 0.9571(3) 0.4158(3) 0.5658(3)
N2 N 0.9079(3) 0.5505(3) 0.5438(3)
C10 C 0.9862(5) 0.3476(4) 0.5741(5)
H15 H 1.02860 0.33480 0.54640
C11 C 0.9565(5) 0.2962(4) 0.6211(5)
H16 H 0.97840 0.24900 0.62600
C12 C 0.8950(5) 0.3140(5) 0.6606(5)
H17 H 0.87420 0.27960 0.69390
C13 C 0.8631(4) 0.3836(5) 0.6514(5)
H18 H 0.81980 0.39660 0.67750
C14 C 0.8960(4) 0.4338(4) 0.6029(4)
C15 C 0.8664(4) 0.5083(5) 0.5887(4)
C16 C 0.8002(5) 0.5320(5) 0.6164(5)
H19 H 0.77170 0.50130 0.64760
C17 C 0.7764(5) 0.6014(6) 0.5979(5)
H20 H 0.73030 0.61880 0.61530
C18 C 0.8204(5) 0.6464(5) 0.5532(5)
H21 H 0.80530 0.69490 0.54090
C19 C 0.8845(4) 0.6191(4) 0.5283(4)
H22 H 0.91460 0.64950 0.49840
O5F O 1.0400(3) 0.1351(3) 0.6155(3)
O6F O 1.0061(3) 0.0372(3) 0.6779(3)
O7F O 0.7891(3) 0.4004(3) 0.8287(3)
O8F O 0.7844(3) 0.3099(3) 0.9086(3)
C1F C 1.0479(4) 0.0922(4) 0.6686(5)
C2F C 1.1109(5) 0.1035(5) 0.7215(5)
H1F H 1.15810 0.09330 0.69650
H2F H 1.10610 0.06930 0.76350
C3F C 1.1100(5) 0.1846(5) 0.7498(5)
H3F H 1.15280 0.19290 0.78250
H4F H 1.11430 0.21860 0.70750
C4F C 1.0402(6) 0.2008(5) 0.7913(5)
H5F H 0.99780 0.18930 0.75910
H6F H 1.03750 0.16760 0.83430
C5F C 1.0329(5) 0.2785(7) 0.8175(5)
H7F H 1.03670 0.31140 0.77430
H8F H 1.07530 0.28950 0.84980
C6F C 0.9630(6) 0.2980(6) 0.8589(6)
H9F H 0.92060 0.28040 0.82980
H10F H 0.96300 0.27060 0.90590
C7F C 0.9517(6) 0.3764(8) 0.8753(5)
H11F H 0.94900 0.40340 0.82810
H12F H 0.99530 0.39480 0.90200
C8F C 0.8842(5) 0.3951(6) 0.9198(5)
H13F H 0.88880 0.37330 0.96940
H14F H 0.88090 0.44910 0.92550
C9F C 0.8148(4) 0.3672(5) 0.8840(5)
O5I O 0.8845(3) -0.0400(3) 0.6351(3)
O6I O 0.8221(3) -0.0061(3) 0.5372(3)
O7I O 0.6713(3) 0.2109(3) 0.9004(3)
O8I O 0.5914(3) 0.2156(3) 0.8099(3)
C1I C 0.8314(4) -0.0479(4) 0.5922(5)
C2I C 0.7785(5) -0.1109(5) 0.6035(5)
H1I H 0.80350 -0.15810 0.59330
H2I H 0.73650 -0.10610 0.56930
C3I C 0.7502(5) -0.1100(5) 0.6846(5)
H3I H 0.71750 -0.15280 0.69290
H4I H 0.79250 -0.11430 0.71860
C4I C 0.7087(6) -0.0402(5) 0.7008(5)
H5I H 0.74090 0.00220 0.68930
H6I H 0.66570 -0.03750 0.66760
C5I C 0.6825(5) -0.0329(7) 0.7785(5)
H7I H 0.72570 -0.03670 0.81140
H8I H 0.65020 -0.07530 0.78950
C6I C 0.6411(6) 0.0370(6) 0.7980(6)
H9I H 0.67020 0.07940 0.78040
H10I H 0.59410 0.03700 0.77060
C7I C 0.6247(6) 0.0483(8) 0.8764(5)
H11I H 0.67190 0.05100 0.90340
H12I H 0.59800 0.00470 0.89480
C8I C 0.5802(5) 0.1158(6) 0.8951(5)
H13I H 0.53060 0.11120 0.87330
H14I H 0.57450 0.11910 0.94910
C9I C 0.6160(4) 0.1852(5) 0.8672(5)
N1E N 1.0658(3) 0.5429(3) 0.5842(3)
N2E N 1.0438(3) 0.5921(3) 0.4495(3)
C10E C 1.0741(5) 0.5138(4) 0.6524(5)
H15E H 1.04640 0.47140 0.66520
C11E C 1.1211(5) 0.5435(4) 0.7038(5)
H16E H 1.12600 0.52160 0.75100
C12E C 1.1606(5) 0.6050(5) 0.6860(5)
H17E H 1.19390 0.62580 0.72040
C13E C 1.1514(4) 0.6369(5) 0.6164(5)
H18E H 1.17750 0.68020 0.60340
C14E C 1.1029(4) 0.6040(4) 0.5662(4)
C15E C 1.0887(4) 0.6336(5) 0.4917(4)
C16E C 1.1164(5) 0.6998(5) 0.4680(5)
H19E H 1.14760 0.72830 0.49870
C17E C 1.0979(5) 0.7236(6) 0.3986(5)
H20E H 1.11530 0.76970 0.38120
C18E C 1.0532(5) 0.6796(5) 0.3536(5)
H21E H 1.04090 0.69470 0.30510
C19E C 1.0283(4) 0.6155(4) 0.3809(4)
H22E H 0.99840 0.58540 0.35050
N1K N 1.0842(3) 0.4342(3) 0.4571(3)
N2K N 0.9495(3) 0.4562(3) 0.4079(3)
C10K C 1.1524(5) 0.4259(4) 0.4862(5)
H15K H 1.16520 0.45360 0.52860
C11K C 1.2038(5) 0.3789(4) 0.4565(5)
H16K H 1.25100 0.37400 0.47840
C12K C 1.1860(5) 0.3394(5) 0.3950(5)
H17K H 1.22040 0.30610 0.37420
C13K C 1.1164(4) 0.3486(5) 0.3631(5)
H18K H 1.10340 0.32250 0.31980
C14K C 1.0662(4) 0.3971(4) 0.3960(4)
C15K C 0.9917(4) 0.4113(5) 0.3664(4)
C16K C 0.9680(5) 0.3836(5) 0.3002(5)
H19K H 0.99870 0.35240 0.27170
C17K C 0.8986(5) 0.4021(6) 0.2764(5)
H20K H 0.88120 0.38470 0.23030
C18K C 0.8536(5) 0.4468(5) 0.3204(5)
H21K H 0.80510 0.45910 0.30530
C19K C 0.8809(4) 0.4717(4) 0.3845(4)
H22K H 0.85050 0.50160 0.41460
#END

data_CSD_CIF_DAEAZN01
_audit_creation_date 2020-10-23
_audit_creation_method CSD-ConQuest-V1
_database_code_CSD DAEAZN01
_database_code_depnum_ccdc_archive 'CCDC 2005517'
_chemical_formula_sum 'C12 H30 Br2 N4 Zn1'
_chemical_formula_moiety
;
C12 H30 Br1 N4 Zn1 1+,Br1 1-
;
_journal_coden_Cambridge 1659
_journal_volume 280
_journal_year 2021
_journal_page_first 119395
_journal_name_full 'Applied Catalysis B: Environmental(Appl.Catal.,B) '
loop_
_publ_author_name
"K.Naveen"
"Hoon Ji"
"Tea Soon Kim"
"Dongwoo Kim"
"Deug-Hee Cho"
_chemical_name_systematic
;
bromo-(tris(2-(dimethylamino)ethyl)amine)-zinc bromide
;
_cell_volume   1741.948
_exptl_crystal_colour 'silver'
_exptl_crystal_density_diffrn 1.737
_exptl_crystal_description 'block'
_diffrn_ambient_temperature 100
#These two values have been output from a single CSD field.
_refine_ls_R_factor_gt 0.0156
_refine_ls_wR_factor_gt 0.0156
_symmetry_cell_setting cubic
_symmetry_space_group_name_H-M 'P 21 3'
_symmetry_Int_Tables_number 198
loop_
_symmetry_equiv_pos_site_id
_symmetry_equiv_pos_as_xyz
1 x,y,z
2 z,x,y
3 y,z,x
4 1/2-y,-z,1/2+x
5 1/2+z,1/2-x,-y
6 -y,1/2+z,1/2-x
7 1/2-z,-x,1/2+y
8 -z,1/2+x,1/2-y
9 1/2+y,1/2-z,-x
10 1/2+x,1/2-y,-z
11 -x,1/2+y,1/2-z
12 1/2-x,-y,1/2+z
_cell_length_a 12.0322(12)
_cell_length_b 12.0322(12)
_cell_length_c 12.0322(12)
_cell_angle_alpha 90
_cell_angle_beta 90
_cell_angle_gamma 90
_cell_formula_units_Z 4
loop_
_atom_type_symbol
_atom_type_radius_bond
C 0.68
H 0.23
Br 1.21
N 0.68
Zn 1.22
loop_
_atom_site_label
_atom_site_type_symbol
_atom_site_fract_x
_atom_site_fract_y
_atom_site_fract_z
Br1 Br 0.18607(2) 0.18607(2) 0.18607(2)
Br2 Br 0.61080(2) 0.11080(2) 0.38920(2)
Zn1 Zn 0.72923(2) 0.22923(2) 0.27077(2)
N1 N 0.84766(16) 0.27684(18) 0.39528(17)
N2 N 0.83582(18) 0.33582(18) 0.16418(18)
C1 C 0.8998(2) 0.3813(2) 0.3533(2)
H1 H 0.96660 0.39850 0.39820
H2 H 0.84670 0.44360 0.36160
C2 C 0.9326(2) 0.3700(2) 0.2321(2)
H3 H 0.96150 0.44200 0.20460
H4 H 0.99240 0.31400 0.22490
C3 C 0.9336(2) 0.1891(2) 0.4093(2)
H5 H 0.98700 0.21220 0.46630
H6 H 0.97260 0.17790 0.33860
H7 H 0.89800 0.11950 0.43200
C4 C 0.7981(2) 0.2983(2) 0.5057(2)
H8 H 0.85680 0.31960 0.55810
H9 H 0.76100 0.23090 0.53240
H10 H 0.74380 0.35870 0.49980
N1G N 0.60472(16) 0.34766(18) 0.22316(17)
C1G C 0.6467(2) 0.3998(2) 0.1187(2)
H1G H 0.60180 0.46660 0.10150
H2G H 0.63840 0.34670 0.05640
C2G C 0.7679(2) 0.4326(2) 0.1300(2)
H3G H 0.79540 0.46150 0.05800
H4G H 0.77510 0.49240 0.18600
C3G C 0.5907(2) 0.4336(2) 0.3109(2)
H5G H 0.53370 0.48700 0.28780
H6G H 0.66140 0.47260 0.32210
H7G H 0.56800 0.39800 0.38050
C4G C 0.4943(2) 0.2981(2) 0.2017(2)
H8G H 0.44190 0.35680 0.18040
H9G H 0.46760 0.26100 0.26910
H10G H 0.50020 0.24380 0.14130
N1H N 0.77684(16) 0.10472(18) 0.15234(17)
C1H C 0.8813(2) 0.1467(2) 0.1002(2)
H1H H 0.89850 0.10180 0.03340
H2H H 0.94360 0.13840 0.15330
C2H C 0.8700(2) 0.2679(2) 0.0674(2)
H3H H 0.94200 0.29540 0.03850
H4H H 0.81400 0.27510 0.00760
C3H C 0.6891(2) 0.0907(2) 0.0664(2)
H5H H 0.71220 0.03370 0.01300
H6H H 0.67790 0.16140 0.02740
H7H H 0.61950 0.06800 0.10200
C4H C 0.7983(2) -0.0057(2) 0.2019(2)
H8H H 0.81960 -0.05810 0.14320
H9H H 0.73090 -0.03240 0.23900
H10H H 0.85870 0.00020 0.25620
#END

data_CSD_CIF_DANKUZ
_audit_creation_date 2005-04-12
_audit_creation_method CSD-ConQuest-V1
_database_code_CSD DANKUZ
_database_code_depnum_ccdc_archive 'CCDC 265138'
_chemical_formula_sum 'C69 H114 Cl8 Co4 N12 O6'
_chemical_formula_moiety
;
3(C23 H38 Cl1 Co1 N4 O2 1+),Cl4 Co1 2-,Cl1 1-
;
_journal_coden_Cambridge 93
_journal_volume 397
_journal_year 2004
_journal_page_first 214
_journal_name_full 'Dokl.Akad.Nauk SSSR(Russ.)(Proc.Nat.Acad.Sci.USSR) '
loop_
_publ_author_name
"S.V.Larionov"
"L.I.Myachina"
"R.F.Klevtsova"
"L.A.Glinskaya"
"L.A.Sheludyakova"
"S.N.Bizyaev"
"A.V.Tkachev"
_chemical_name_systematic
;
tris(Chloro-(5,7-dioxa-4,8,16,19-tetra-aza-12,12,15,20,23,23-hexamethylpentacy
clo(20.1.0.0^3,20^.0^9,15^.0^11,13^)tricosa-3,8-diene)-cobalt(ii)) 
tetrachlorocobaltate(ii) chloride
;
_cell_volume   9291.462
_exptl_crystal_colour 'blue'
_exptl_crystal_density_diffrn 1.235
_exptl_crystal_description 'prism'
_diffrn_ambient_temperature 295
#These two values have been output from a single CSD field.
_refine_ls_R_factor_gt 0.0458
_refine_ls_wR_factor_gt 0.0458
_symmetry_cell_setting cubic
_symmetry_space_group_name_H-M 'P 21 3'
_symmetry_Int_Tables_number 198
loop_
_symmetry_equiv_pos_site_id
_symmetry_equiv_pos_as_xyz
1 x,y,z
2 1/2-x,-y,1/2+z
3 1/2+x,1/2-y,-z
4 -x,1/2+y,1/2-z
5 z,x,y
6 y,z,x
7 1/2-z,-x,1/2+y
8 -y,1/2+z,1/2-x
9 1/2+z,1/2-x,-y
10 1/2-y,-z,1/2+x
11 -z,1/2+x,1/2-y
12 1/2+y,1/2-z,-x
_cell_length_a 21.023(3)
_cell_length_b 21.023(3)
_cell_length_c 21.023(3)
_cell_angle_alpha 90
_cell_angle_beta 90
_cell_angle_gamma 90
_cell_formula_units_Z 4
loop_
_atom_type_symbol
_atom_type_radius_bond
C 0.68
H 0.23
Cl 0.99
Co 1.33
N 0.68
O 0.68
loop_
_atom_site_label
_atom_site_type_symbol
_atom_site_fract_x
_atom_site_fract_y
_atom_site_fract_z
Co1 Co 0.16210(9) 0.57199(9) 0.14637(9)
N1 N 0.2491(5) 0.5300(6) 0.1156(5)
H1 H 0.27430 0.56130 0.09950
N2 N 0.2105(5) 0.5878(6) 0.2326(5)
H2 H 0.21510 0.63050 0.23730
N3 N 0.1303(6) 0.4862(5) 0.1029(6)
N4 N 0.0968(6) 0.5409(7) 0.2129(6)
Cl1 Cl 0.11493(19) 0.6488(2) 0.0909(2)
O1 O 0.0704(5) 0.4572(5) 0.1170(5)
O2 O 0.0318(5) 0.5245(6) 0.1980(6)
C1 C 0.2889(9) 0.3780(8) 0.0948(9)
H3 H 0.31500 0.38220 0.13320
C2 C 0.2880(6) 0.4376(7) 0.0531(8)
H4 H 0.32810 0.45960 0.05880
H5 H 0.28590 0.42410 0.00900
C3 C 0.2365(7) 0.4832(7) 0.0642(7)
C4 C 0.1735(8) 0.4498(7) 0.0801(6)
C5 C 0.1703(8) 0.3772(7) 0.0723(9)
H6 H 0.13080 0.36110 0.09000
H7 H 0.17170 0.36600 0.02750
C6 C 0.2254(8) 0.3484(8) 0.1061(8)
H8 H 0.21700 0.33620 0.15030
C7 C 0.2787(10) 0.3137(9) 0.0751(10)
C8 C 0.2703(10) 0.2950(11) 0.0078(12)
H9 H 0.26040 0.25050 0.00550
H10 H 0.30890 0.30320 -0.01520
H11 H 0.23620 0.31920 -0.01060
C9 C 0.3134(9) 0.2623(9) 0.1140(18)
H12 H 0.30300 0.22110 0.09750
H13 H 0.30050 0.26490 0.15770
H14 H 0.35850 0.26890 0.11110
C10 C 0.2249(8) 0.5232(8) 0.0027(7)
H15 H 0.19100 0.55280 0.01000
H16 H 0.21360 0.49530 -0.03160
H17 H 0.26300 0.54590 -0.00800
C11 C 0.2778(7) 0.5070(7) 0.1749(6)
H18 H 0.32120 0.49330 0.16710
H19 H 0.25390 0.47090 0.19100
C12 C 0.0265(7) 0.5084(8) 0.1339(8)
H20 H 0.03550 0.54550 0.10800
H21 H -0.01670 0.49500 0.12500
C13 C 0.1307(8) 0.6659(7) 0.3438(7)
H22 H 0.14600 0.70500 0.32360
C14 C 0.1783(7) 0.6132(8) 0.3470(7)
H23 H 0.17290 0.59100 0.38710
H24 H 0.22060 0.63160 0.34680
C15 C 0.1739(7) 0.5629(8) 0.2912(6)
C16 C 0.1059(7) 0.5568(8) 0.2691(9)
C17 C 0.0541(8) 0.5752(9) 0.3177(8)
H25 H 0.01190 0.56600 0.30130
H26 H 0.06000 0.55280 0.35760
C18 C 0.0636(8) 0.6468(8) 0.3263(8)
H27 H 0.04170 0.67440 0.29580
C19 C 0.0766(8) 0.6748(9) 0.3900(8)
C20 C 0.0716(8) 0.6394(9) 0.4503(8)
H28 H 0.08200 0.66700 0.48510
H29 H 0.10070 0.60410 0.44970
H30 H 0.02900 0.62380 0.45540
C21 C 0.0580(14) 0.7450(8) 0.3959(9)
H31 H 0.06150 0.76520 0.35500
H32 H 0.08600 0.76580 0.42540
H33 H 0.01500 0.74820 0.41090
C22 C 0.1946(7) 0.4971(7) 0.3132(8)
H34 H 0.23810 0.49870 0.32700
H35 H 0.19070 0.46760 0.27860
H36 H 0.16820 0.48360 0.34790
C23 C 0.2771(7) 0.5597(7) 0.2226(7)
H37 H 0.30560 0.59310 0.20850
H38 H 0.29300 0.54370 0.26290
Co2 Co 0.95356(9) 0.95356(9) 0.95356(9)
Cl2 Cl 0.89013(16) 0.89013(16) 0.89013(16)
Cl3 Cl 0.95766(18) 1.04780(17) 0.90233(18)
Cl4 Cl 0.76741(19) 0.76741(19) 0.76741(19)
Cl3D Cl 0.90233(18) 0.95766(17) 1.04780(18)
Cl3E Cl 1.04780(18) 0.90233(17) 0.95766(18)
#END

data_CSD_CIF_DAZPUS03
_audit_creation_date 2017-05-23
_audit_creation_method CSD-ConQuest-V1
_database_code_CSD DAZPUS03
_database_code_depnum_ccdc_archive 'CCDC 1529953'
_chemical_formula_sum 'C43 H64'
_chemical_formula_moiety
;
C43 H64
;
_journal_coden_Cambridge 4
_journal_volume 139
_journal_year 2017
_journal_page_first 7428
_journal_name_full 'J.Am.Chem.Soc. '
loop_
_publ_author_name
"S.Rosel"
"Henrik Quanz"
"C.Logemann"
"J.Becker"
"E.Mossou"
"L.Canadillas-Delgado"
"E.Caldeweyher"
"S.Grimme"
"P.R.Schreiner"
_chemical_name_systematic
;
tris(3,5-di-t-butylphenyl)methane
;
_cell_volume   7833.055
_exptl_crystal_colour 'colorless'
_exptl_crystal_density_diffrn 0.985
_exptl_crystal_description 'blocks'
_diffrn_ambient_temperature 20
_diffrn_radiation_probe 'neutron'
#These two values have been output from a single CSD field.
_refine_ls_R_factor_gt 0.031
_refine_ls_wR_factor_gt 0.031
_symmetry_cell_setting cubic
_symmetry_space_group_name_H-M 'P 21 3'
_symmetry_Int_Tables_number 198
loop_
_symmetry_equiv_pos_site_id
_symmetry_equiv_pos_as_xyz
1 x,y,z
2 1/2-x,-y,1/2+z
3 -x,1/2+y,1/2-z
4 1/2+x,1/2-y,-z
5 z,x,y
6 1/2+z,1/2-x,-y
7 1/2-z,-x,1/2+y
8 -z,1/2+x,1/2-y
9 y,z,x
10 -y,1/2+z,1/2-x
11 1/2+y,1/2-z,-x
12 1/2-y,-z,1/2+x
_cell_length_a 19.8599(3)
_cell_length_b 19.8599(3)
_cell_length_c 19.8599(3)
_cell_angle_alpha 90
_cell_angle_beta 90
_cell_angle_gamma 90
_cell_formula_units_Z 8
loop_
_atom_type_symbol
_atom_type_radius_bond
C 0.68
H 0.23
loop_
_atom_site_label
_atom_site_type_symbol
_atom_site_fract_x
_atom_site_fract_y
_atom_site_fract_z
C1 C 0.56954(5) 0.30436(6) 0.80627(6)
C2 C 0.69715(5) 0.30285(5) 0.80285(5)
C3 C 0.56435(6) 0.08697(5) 0.82714(6)
C4 C 0.50668(6) 0.20194(6) 0.81853(6)
C5 C 0.50475(6) 0.05592(6) 0.78886(6)
C6 C 0.62726(6) 0.19793(5) 0.81194(6)
C7 C 0.44366(6) 0.31551(5) 0.81143(5)
C8 C 0.37918(6) 0.27446(6) 0.82102(7)
C9 C 0.56640(6) 0.16371(5) 0.81792(6)
C10 C 0.62919(5) 0.26820(5) 0.80638(5)
C11 C 0.55664(7) 0.07213(6) 0.90282(6)
C12 C 0.43950(6) 0.35140(6) 0.74294(6)
C13 C 0.50723(5) 0.27193(6) 0.81269(5)
C14 C 0.44749(6) 0.36846(6) 0.86804(6)
C15 C 0.62899(6) 0.05291(6) 0.80163(6)
H1 H 0.57171(14) 0.35868(13) 0.80088(16)
H2 H 0.67458(13) 0.17054(14) 0.81197(16)
H3 H 0.72879(13) 0.27121(13) 0.77121(13)
H4 H 0.45883(13) 0.17620(14) 0.82380(16)
H5 H 0.33563(15) 0.30808(16) 0.81949(19)
H6 H 0.37267(17) 0.23735(17) 0.78155(18)
H7 H 0.37874(17) 0.24877(18) 0.86949(19)
H8 H 0.50582(17) 0.00113(15) 0.7934(2)
H9 H 0.40227(17) 0.39948(17) 0.8682(2)
H10 H 0.62375(16) -0.00157(14) 0.8066(2)
H11 H 0.39461(17) 0.38314(18) 0.74068(19)
H12 H 0.4365(2) 0.31449(18) 0.70220(16)
H13 H 0.48332(17) 0.38311(18) 0.73398(18)
H14 H 0.51053(17) 0.09380(18) 0.92223(16)
H15 H 0.63878(18) 0.06408(18) 0.74885(17)
H16 H 0.49036(17) 0.40189(17) 0.86168(19)
H17 H 0.4517(2) 0.34425(19) 0.91691(16)
H18 H 0.67339(14) 0.06766(16) 0.83019(18)
H19 H 0.45629(14) 0.07265(16) 0.80836(19)
H20 H 0.59850(18) 0.09297(18) 0.93119(16)
H21 H 0.5551(2) 0.01772(15) 0.91193(17)
H22 H 0.50690(19) 0.06852(19) 0.73554(16)
C16 C 0.77332(6) 0.18407(5) 0.50440(5)
C17 C 0.70063(5) 0.18341(6) 0.62508(6)
C18 C 0.80624(5) 0.19376(5) 0.69376(5)
C19 C 0.77448(6) 0.17543(6) 0.37656(6)
C20 C 0.86856(6) 0.12758(7) 0.44378(6)
C21 C 0.77076(5) 0.18959(5) 0.62647(5)
C22 C 0.70302(6) 0.17871(6) 0.50428(5)
C23 C 0.66559(5) 0.17843(6) 0.56435(6)
C24 C 0.55683(6) 0.21996(7) 0.61625(6)
C25 C 0.81634(5) 0.18460(6) 0.44040(6)
C26 C 0.58883(5) 0.17077(6) 0.56558(6)
C27 C 0.80622(5) 0.19011(6) 0.56623(5)
C28 C 0.85288(6) 0.25289(6) 0.43588(6)
C29 C 0.57170(6) 0.09845(6) 0.58732(7)
C30 C 0.55718(6) 0.18400(7) 0.49667(6)
H23 H 0.67703(14) 0.17461(16) 0.45677(13)
H24 H 0.67356(14) 0.18246(17) 0.67288(13)
H25 H 0.86065(13) 0.19556(16) 0.56809(14)
H26 H 0.80748(16) 0.17523(19) 0.33252(14)
H27 H 0.77433(12) 0.22567(12) 0.72567(12)
H28 H 0.50250(15) 0.1806(2) 0.50052(16)
H29 H 0.74699(18) 0.12777(18) 0.37686(17)
H30 H 0.73793(17) 0.21580(18) 0.36975(17)
H31 H 0.89962(18) 0.1270(2) 0.39851(17)
H32 H 0.88312(18) 0.25563(19) 0.39034(17)
H33 H 0.81659(18) 0.29415(15) 0.4346(2)
H34 H 0.90197(17) 0.1322(2) 0.48706(16)
H35 H 0.50215(15) 0.2141(2) 0.61556(19)
H36 H 0.88616(19) 0.2612(2) 0.47873(18)
H37 H 0.84391(19) 0.07865(17) 0.4475(2)
H38 H 0.56947(18) 0.2341(2) 0.47817(18)
H39 H 0.51710(16) 0.09120(19) 0.5893(2)
H40 H 0.57322(17) 0.1475(2) 0.45881(15)
H41 H 0.59242(19) 0.08749(19) 0.63681(19)
H42 H 0.56865(19) 0.27177(17) 0.6032(2)
H43 H 0.57342(18) 0.2115(2) 0.66759(16)
H44 H 0.59221(19) 0.06205(17) 0.5519(2)
C1F C 0.69373(5) 0.43046(6) 0.80436(6)
C3F C 0.67286(6) 0.43565(5) 0.58697(6)
C4F C 0.68147(6) 0.49332(6) 0.70194(6)
C5F C 0.71114(6) 0.49525(6) 0.55592(6)
C6F C 0.68806(6) 0.37274(5) 0.69793(6)
C7F C 0.68857(6) 0.55634(5) 0.81551(5)
C8F C 0.67898(6) 0.62082(6) 0.77446(7)
C9F C 0.68208(6) 0.43360(5) 0.66371(6)
C10F C 0.69362(5) 0.37081(5) 0.76820(5)
C11F C 0.59718(7) 0.44336(6) 0.57213(6)
C12F C 0.75706(6) 0.56050(6) 0.85140(6)
C13F C 0.68731(5) 0.49277(6) 0.77193(5)
C14F C 0.63196(6) 0.55251(6) 0.86846(6)
C15F C 0.69837(6) 0.37101(6) 0.55291(6)
H1F H 0.69912(14) 0.42829(13) 0.85868(16)
H2F H 0.68803(13) 0.32542(14) 0.67054(16)
H4F H 0.67620(13) 0.54117(14) 0.67620(16)
H5F H 0.68051(15) 0.66437(16) 0.80808(19)
H6F H 0.71845(17) 0.62733(17) 0.73735(18)
H7F H 0.63051(17) 0.62126(18) 0.74877(19)
H8F H 0.70660(17) 0.49418(15) 0.50113(20)
H9F H 0.63180(17) 0.59773(17) 0.89948(20)
H10F H 0.69340(16) 0.37625(14) 0.49843(20)
H11F H 0.75932(17) 0.60539(18) 0.88314(19)
H12F H 0.7978(2) 0.56350(18) 0.81449(16)
H13F H 0.76602(17) 0.51668(18) 0.88311(18)
H14F H 0.57777(17) 0.48947(18) 0.59380(16)
H15F H 0.75115(18) 0.36122(18) 0.56408(17)
H16F H 0.63832(17) 0.50964(17) 0.90189(19)
H17F H 0.58309(20) 0.54830(19) 0.84425(16)
H18F H 0.66981(14) 0.32661(16) 0.56766(18)
H19F H 0.69164(14) 0.54371(16) 0.57265(19)
H20F H 0.56881(18) 0.40150(18) 0.59297(16)
H21F H 0.58807(20) 0.44490(15) 0.51772(17)
H22F H 0.76446(19) 0.49310(19) 0.56852(16)
C1I C 0.69564(5) 0.30627(6) 0.93046(6)
C3I C 0.91303(6) 0.32714(5) 0.93565(6)
C4I C 0.79806(6) 0.31853(6) 0.99332(6)
C5I C 0.94408(6) 0.28886(6) 0.99525(6)
C6I C 0.80207(6) 0.31194(5) 0.87274(6)
C7I C 0.68449(6) 0.31143(5) 1.05634(5)
C8I C 0.72554(6) 0.32102(6) 1.12082(7)
C9I C 0.83629(6) 0.31792(5) 0.93360(6)
C10I C 0.73180(5) 0.30638(5) 0.87081(5)
C11I C 0.92787(7) 0.40282(6) 0.94336(6)
C12I C 0.64860(6) 0.24294(6) 1.06050(6)
C13I C 0.72807(5) 0.31269(6) 0.99277(5)
C14I C 0.63154(6) 0.36804(6) 1.05251(6)
C15I C 0.94709(6) 0.30163(6) 0.87101(6)
H1I H 0.64132(14) 0.30088(13) 0.92829(16)
H2I H 0.82946(13) 0.31197(14) 0.82542(16)
H4I H 0.82380(13) 0.32380(14) 1.04117(16)
H5I H 0.69192(15) 0.31949(16) 1.16437(19)
H6I H 0.76265(17) 0.28155(17) 1.12733(18)
H7I H 0.75123(17) 0.36949(18) 1.12126(19)
H8I H 0.99887(17) 0.29340(15) 0.99418(20)
H9I H 0.60052(17) 0.36820(17) 1.09773(20)
H10I H 1.00157(16) 0.30660(14) 0.87625(20)
H11I H 0.61686(17) 0.24068(18) 1.10539(19)
H12I H 0.68551(20) 0.20220(18) 1.06350(16)
H13I H 0.61689(17) 0.23398(18) 1.01668(18)
H14I H 0.90620(17) 0.42223(18) 0.98947(16)
H15I H 0.93592(18) 0.24885(18) 0.86122(17)
H16I H 0.59811(17) 0.36168(17) 1.00964(19)
H17I H 0.65575(20) 0.41691(19) 1.04830(16)
H18I H 0.93234(14) 0.33019(16) 0.82661(18)
H19I H 0.92735(14) 0.30836(16) 1.04371(19)
H20I H 0.90703(18) 0.43119(18) 0.90150(16)
H21I H 0.98228(20) 0.41193(15) 0.94490(17)
H22I H 0.93148(19) 0.23554(19) 0.99310(16)
C16F C 0.99560(6) 0.22668(5) 0.68407(5)
C17F C 0.87492(5) 0.29937(6) 0.68341(6)
C19F C 1.12344(6) 0.22552(6) 0.67543(6)
C20F C 1.05622(6) 0.13144(7) 0.62758(6)
C21F C 0.87353(5) 0.22924(5) 0.68959(5)
C22F C 0.99572(6) 0.29698(6) 0.67871(5)
C23F C 0.93565(5) 0.33441(6) 0.67843(6)
C24F C 0.88375(6) 0.44317(7) 0.71996(6)
C25F C 1.05960(5) 0.18366(6) 0.68460(6)
C26F C 0.93442(5) 0.41117(6) 0.67077(6)
C27F C 0.93377(5) 0.19378(6) 0.69011(5)
C28F C 1.06412(6) 0.14712(6) 0.75289(6)
C29F C 0.91268(6) 0.42830(6) 0.59845(7)
C30F C 1.00333(6) 0.44282(7) 0.68400(6)
H23F H 1.04323(14) 0.32297(16) 0.67461(13)
H24F H 0.82712(14) 0.32644(17) 0.68246(13)
H25F H 0.93191(13) 0.13935(16) 0.69556(14)
H26F H 1.16748(16) 0.19252(19) 0.67523(14)
H28F H 0.99948(15) 0.4975(2) 0.68060(16)
H29F H 1.12314(18) 0.25301(18) 0.62777(17)
H30F H 1.13025(17) 0.26207(18) 0.71580(17)
H31F H 1.10149(18) 0.10038(20) 0.62700(17)
H32F H 1.10966(18) 0.11688(19) 0.75563(17)
H33F H 1.06540(18) 0.18341(15) 0.79415(20)
H34F H 1.01294(17) 0.09803(20) 0.63220(16)
H35F H 0.88444(15) 0.49785(20) 0.71410(19)
H36F H 1.02127(19) 0.11384(20) 0.76120(18)
H37F H 1.05250(19) 0.15609(17) 0.57865(20)
H38F H 1.02183(18) 0.43053(20) 0.73410(18)
H39F H 0.91070(16) 0.48290(19) 0.5912(2)
H40F H 1.04119(17) 0.42678(20) 0.64750(15)
H41F H 0.86319(19) 0.40758(19) 0.58749(19)
H42F H 0.89680(19) 0.43135(17) 0.77177(20)
H43F H 0.83241(18) 0.42658(20) 0.71150(16)
H44F H 0.94810(19) 0.40779(17) 0.56205(20)
C16I C 0.81593(6) 0.00440(5) 0.72668(5)
C17I C 0.81659(5) 0.12508(6) 0.79937(6)
C19I C 0.82457(6) -0.12344(6) 0.72552(6)
C20I C 0.87242(6) -0.05622(7) 0.63144(6)
C21I C 0.81041(5) 0.12647(5) 0.72924(5)
C22I C 0.82129(6) 0.00428(6) 0.79698(5)
C23I C 0.82157(5) 0.06435(6) 0.83441(6)
C24I C 0.78004(6) 0.11625(7) 0.94317(6)
C25I C 0.81540(5) -0.05960(6) 0.68366(6)
C26I C 0.82923(5) 0.06558(6) 0.91117(6)
C27I C 0.80989(5) 0.06623(6) 0.69378(5)
C28I C 0.74711(6) -0.06412(6) 0.64712(6)
C29I C 0.90155(6) 0.08732(6) 0.92830(7)
C30I C 0.81600(6) -0.00333(7) 0.94282(6)
H23I H 0.82539(14) -0.04323(16) 0.82297(13)
H24I H 0.81754(14) 0.17288(17) 0.82644(13)
H25I H 0.80444(13) 0.06809(16) 0.63935(14)
H26I H 0.82477(16) -0.16748(19) 0.69252(14)
H28I H 0.81940(15) 0.00052(20) 0.99750(16)
H29I H 0.87223(18) -0.12314(18) 0.75301(17)
H30I H 0.78420(17) -0.13025(18) 0.76207(17)
H31I H 0.87300(18) -0.10149(20) 0.60038(17)
H32I H 0.74437(18) -0.10966(19) 0.61688(17)
H33I H 0.70585(18) -0.06540(15) 0.68341(20)
H34I H 0.86780(17) -0.01294(20) 0.59803(16)
H35I H 0.78590(15) 0.11556(20) 0.99785(19)
H36I H 0.73880(19) -0.02127(20) 0.61384(18)
H37I H 0.92135(19) -0.05250(17) 0.65609(20)
H38I H 0.76590(18) -0.02183(20) 0.93053(18)
H39I H 0.90880(16) 0.08930(19) 0.9829(2)
H40I H 0.85250(17) -0.04119(20) 0.92678(15)
H41I H 0.91251(19) 0.13681(19) 0.90758(19)
H42I H 0.72823(19) 0.10320(17) 0.93135(20)
H43I H 0.78850(18) 0.16759(20) 0.92658(16)
H44I H 0.93795(19) 0.05190(17) 0.90779(20)
#END

data_CSD_CIF_DEMCIH
_audit_creation_date 2000-02-23
_audit_creation_method CSD-ConQuest-V1
_database_code_CSD DEMCIH
_database_code_depnum_ccdc_archive 'CCDC 134440'
_chemical_formula_sum 'C3 B1 Cl1 Cs1 F9'
_chemical_formula_moiety
;
C3 B1 Cl1 F9 1-,Cs1 1+
;
_journal_coden_Cambridge 9
_journal_volume 38
_journal_year 1999
_journal_page_first 3972
_journal_name_full 'Inorg.Chem. '
loop_
_publ_author_name
"D.J.Brauer"
"H.Burger"
"Y.Chebude"
"G.Pawelke"
_chemical_name_systematic
;
Cesium chloro-tris(trifluoromethyl)borate
;
_cell_volume    942.893
_exptl_crystal_colour 'colorless'
_exptl_crystal_density_diffrn 2.721
_exptl_crystal_description 'block'
_exptl_crystal_preparation 'aqueous'
_diffrn_ambient_temperature ?
_diffrn_special_details
;
The study was carried out at room temperature,in the range 283-303K

;
#These two values have been output from a single CSD field.
_refine_ls_R_factor_gt 0.0237
_refine_ls_wR_factor_gt 0.0237
_symmetry_cell_setting cubic
_symmetry_space_group_name_H-M 'P 21 3'
_symmetry_Int_Tables_number 198
loop_
_symmetry_equiv_pos_site_id
_symmetry_equiv_pos_as_xyz
1 x,y,z
2 1/2-x,-y,1/2+z
3 -x,1/2+y,1/2-z
4 1/2+x,1/2-y,-z
5 z,x,y
6 1/2+z,1/2-x,-y
7 1/2-z,-x,1/2+y
8 -z,1/2+x,1/2-y
9 y,z,x
10 -y,1/2+z,1/2-x
11 1/2+y,1/2-z,-x
12 1/2-y,-z,1/2+x
_cell_length_a 9.8059(9)
_cell_length_b 9.8059(9)
_cell_length_c 9.8059(9)
_cell_angle_alpha 90
_cell_angle_beta 90
_cell_angle_gamma 90
_cell_formula_units_Z 4
loop_
_atom_type_symbol
_atom_type_radius_bond
C 0.68
B 0.83
Cl 0.99
Cs 1.67
F 0.64
loop_
_atom_site_label
_atom_site_type_symbol
_atom_site_fract_x
_atom_site_fract_y
_atom_site_fract_z
B1 B 0.5126(4) 0.5126(4) 0.5126(4)
C1 C 0.5175(4) 0.5731(4) 0.3582(4)
F1 F 0.4593(4) 0.6965(3) 0.3471(3)
F2 F 0.6434(4) 0.5881(4) 0.3077(3)
F3 F 0.4532(3) 0.4953(3) 0.2660(2)
Cl1 Cl 0.62220(9) 0.62220(9) 0.62220(9)
Cs1 Cs 0.04780(2) 0.04780(2) 0.04780(2)
C1D C 0.3582(4) 0.5175(4) 0.5731(4)
F1D F 0.3471(4) 0.4593(3) 0.6965(3)
F2D F 0.3077(4) 0.6434(4) 0.5881(3)
F3D F 0.2660(3) 0.4532(3) 0.4953(2)
C1H C 0.5731(4) 0.3582(4) 0.5175(4)
F1H F 0.6965(4) 0.3471(3) 0.4593(3)
F2H F 0.5881(4) 0.3077(4) 0.6434(3)
F3H F 0.4953(3) 0.2660(3) 0.4532(2)
#END

data_CSD_CIF_DEMDUU
_audit_creation_date 2000-02-23
_audit_creation_method CSD-ConQuest-V1
_database_code_CSD DEMDUU
_database_code_depnum_ccdc_archive 'CCDC 134441'
_chemical_formula_sum 'C3 B1 Br1 Cs1 F9'
_chemical_formula_moiety
;
C3 B1 Br1 F9 1-,Cs1 1+
;
_journal_coden_Cambridge 9
_journal_volume 38
_journal_year 1999
_journal_page_first 3972
_journal_name_full 'Inorg.Chem. '
loop_
_publ_author_name
"D.J.Brauer"
"H.Burger"
"Y.Chebude"
"G.Pawelke"
_chemical_name_systematic
;
Cesium bromo-tris(trifluoromethyl)borate
;
_cell_volume    970.328
_exptl_crystal_colour 'colorless'
_exptl_crystal_density_diffrn 2.948
_exptl_crystal_description 'block'
_diffrn_ambient_temperature ?
_diffrn_special_details
;
The study was carried out at room temperature,in the range 283-303K

;
#These two values have been output from a single CSD field.
_refine_ls_R_factor_gt 0.0463
_refine_ls_wR_factor_gt 0.0463
_symmetry_cell_setting cubic
_symmetry_space_group_name_H-M 'P 21 3'
_symmetry_Int_Tables_number 198
loop_
_symmetry_equiv_pos_site_id
_symmetry_equiv_pos_as_xyz
1 x,y,z
2 1/2-x,-y,1/2+z
3 -x,1/2+y,1/2-z
4 1/2+x,1/2-y,-z
5 z,x,y
6 1/2+z,1/2-x,-y
7 1/2-z,-x,1/2+y
8 -z,1/2+x,1/2-y
9 y,z,x
10 -y,1/2+z,1/2-x
11 1/2+y,1/2-z,-x
12 1/2-y,-z,1/2+x
_cell_length_a 9.9001(14)
_cell_length_b 9.9001(14)
_cell_length_c 9.9001(14)
_cell_angle_alpha 90
_cell_angle_beta 90
_cell_angle_gamma 90
_cell_formula_units_Z 4
loop_
_atom_type_symbol
_atom_type_radius_bond
C 0.68
B 0.83
Br 1.21
Cs 1.67
F 0.64
loop_
_atom_site_label
_atom_site_type_symbol
_atom_site_fract_x
_atom_site_fract_y
_atom_site_fract_z
B1 B 0.5123(10) 0.5123(10) 0.5123(10)
C1 C 0.5161(11) 0.5718(11) 0.3559(10)
F1 F 0.4615(10) 0.6958(9) 0.3500(7)
F2 F 0.6412(10) 0.5836(10) 0.3106(9)
F3 F 0.4535(10) 0.4951(9) 0.2730(7)
Br1 Br 0.63062(11) 0.63062(11) 0.63062(11)
Cs1 Cs 0.04328(7) 0.04328(7) 0.04328(7)
C1D C 0.3559(11) 0.5161(11) 0.5718(10)
F1D F 0.350(1) 0.4615(9) 0.6958(7)
F2D F 0.3106(10) 0.6412(10) 0.5836(9)
F3D F 0.273(1) 0.4535(9) 0.4951(7)
C1H C 0.5718(11) 0.3559(11) 0.5161(10)
F1H F 0.6958(10) 0.3500(9) 0.4615(7)
F2H F 0.5836(10) 0.3106(10) 0.6412(9)
F3H F 0.4951(10) 0.2730(9) 0.4535(7)
#END

data_CSD_CIF_DMAECO01
_audit_creation_date 2008-11-06
_audit_creation_method CSD-ConQuest-V1
_database_code_CSD DMAECO01
_database_code_depnum_ccdc_archive 'CCDC 674121'
_chemical_formula_sum 'C12 H30 Br2 Co1 N4'
_chemical_formula_moiety
;
C12 H30 Br1 Co1 N4 1+,Br1 1-
;
_journal_coden_Cambridge 580
_journal_volume 27
_journal_year 2008
_journal_page_first 2175
_journal_name_full 'Polyhedron '
loop_
_publ_author_name
"U.Baisch"
"R.Poli"
_chemical_name_systematic
;
Bromo-(N,N,N-tris(2-(N,N-dimethylamino)ethyl)amine-N,N',N'',N''')-cobalt(ii) 
bromide
;
_cell_volume   1761.390
_exptl_crystal_colour 'violet'
_exptl_crystal_density_diffrn 1.694
_exptl_crystal_description 'block'
_diffrn_ambient_temperature 150
#These two values have been output from a single CSD field.
_refine_ls_R_factor_gt 0.0253
_refine_ls_wR_factor_gt 0.0253
_symmetry_cell_setting cubic
_symmetry_space_group_name_H-M 'P 21 3'
_symmetry_Int_Tables_number 198
loop_
_symmetry_equiv_pos_site_id
_symmetry_equiv_pos_as_xyz
1 x,y,z
2 1/2-x,-y,1/2+z
3 -x,1/2+y,1/2-z
4 1/2+x,1/2-y,-z
5 z,x,y
6 1/2+z,1/2-x,-y
7 1/2-z,-x,1/2+y
8 -z,1/2+x,1/2-y
9 y,z,x
10 -y,1/2+z,1/2-x
11 1/2+y,1/2-z,-x
12 1/2-y,-z,1/2+x
_cell_length_a 12.0768(3)
_cell_length_b 12.0768(3)
_cell_length_c 12.0768(3)
_cell_angle_alpha 90
_cell_angle_beta 90
_cell_angle_gamma 90
_cell_formula_units_Z 4
loop_
_atom_type_symbol
_atom_type_radius_bond
C 0.68
H 0.23
Br 1.21
Co 1.33
N 0.68
loop_
_atom_site_label
_atom_site_type_symbol
_atom_site_fract_x
_atom_site_fract_y
_atom_site_fract_z
Br1 Br 0.18685(2) 0.18685(2) 0.18685(2)
Br2 Br 0.38943(2) 0.61057(2) 0.11057(2)
Co1 Co 0.27245(3) 0.72755(3) 0.22755(3)
N1 N 0.22234(18) 0.60602(19) 0.34606(18)
N2 N 0.16653(18) 0.83347(18) 0.33347(18)
C1 C 0.2008(3) 0.4955(2) 0.2961(3)
H1 H 0.26710 0.46880 0.26120
H2 H 0.14300 0.50170 0.24190
H3 H 0.17850 0.44460 0.35300
C2 C 0.1201(2) 0.6469(2) 0.4005(2)
H4 H 0.10540 0.60350 0.46640
H5 H 0.05770 0.63840 0.35060
C3 C 0.1329(2) 0.7679(2) 0.4317(2)
H6 H 0.06330 0.79590 0.46030
H7 H 0.18840 0.77510 0.48930
C4 C 0.3110(2) 0.5907(3) 0.4306(2)
H8 H 0.32750 0.66060 0.46470
H9 H 0.37640 0.56220 0.39560
H10 H 0.28620 0.53940 0.48600
N1F N 0.15394(18) 0.77766(19) 0.10602(18)
N1I N 0.39398(18) 0.84606(19) 0.27766(18)
C1F C 0.2039(3) 0.7992(2) -0.0045(3)
C1I C 0.5045(3) 0.7961(2) 0.2992(3)
H1F H 0.23880 0.73290 -0.03120
H1I H 0.53120 0.76120 0.23290
H2F H 0.25810 0.85700 0.00170
H2I H 0.49830 0.74190 0.35700
H3F H 0.14700 0.82150 -0.05540
H3I H 0.55540 0.85300 0.32150
C2F C 0.0995(2) 0.8799(2) 0.1469(2)
C2I C 0.3531(2) 0.9005(2) 0.3799(2)
H4F H 0.03360 0.89460 0.10350
H4I H 0.39650 0.96640 0.39460
H5F H 0.14940 0.94230 0.13840
H5I H 0.36160 0.85060 0.44230
C3F C 0.0683(2) 0.8671(2) 0.2679(2)
C3I C 0.2321(2) 0.9317(2) 0.3671(2)
H6I H 0.20410 0.96030 0.43670
H6F H 0.03970 0.93670 0.29590
H7I H 0.22490 0.98930 0.31160
H7F H 0.01070 0.81160 0.27510
C4I C 0.4093(2) 0.9306(3) 0.1890(2)
C4F C 0.0694(2) 0.6890(3) 0.0907(2)
H8I H 0.33940 0.96470 0.17250
H8F H 0.03530 0.67250 0.16060
H9I H 0.43780 0.89560 0.12360
H9F H 0.10440 0.62360 0.06220
H10I H 0.46060 0.98600 0.21380
H10F H 0.01400 0.71380 0.03940
#END

data_CSD_CIF_DMAECO02
_audit_creation_date 2014-06-23
_audit_creation_method CSD-ConQuest-V1
_database_code_CSD DMAECO02
_database_code_depnum_ccdc_archive 'CCDC 956889'
_chemical_formula_sum 'C12 H30 Br2 Co1 N4'
_chemical_formula_moiety
;
C12 H30 Br1 Co1 N4 1+,Br1 1-
;
_journal_coden_Cambridge 1475
_journal_volume 5
_journal_year 2014
_journal_page_first 3418
_journal_name_full 'Chemical Science '
loop_
_publ_author_name
"R.Ruamps"
"L.J.Batchelor"
"R.Guillot"
"G.Zakhia"
"A.-L.Barra"
"W.Wernsdorfer"
"N.Guihery"
"T.Mallah"
_chemical_name_systematic
;
(N,N-bis(2-(dimethylamino)ethyl)-N',N'-dimethylethane-1,2-diamine)-bromo-cobal
t(ii) bromide
;
_cell_volume   1739.343
_exptl_crystal_density_diffrn 1.715
_exptl_special_details
;
Absolute configuration

;
_diffrn_ambient_temperature 100
#These two values have been output from a single CSD field.
_refine_ls_R_factor_gt 0.0212
_refine_ls_wR_factor_gt 0.0212
_symmetry_cell_setting cubic
_symmetry_space_group_name_H-M 'P 21 3'
_symmetry_Int_Tables_number 198
loop_
_symmetry_equiv_pos_site_id
_symmetry_equiv_pos_as_xyz
1 x,y,z
2 1/2-x,-y,1/2+z
3 -x,1/2+y,1/2-z
4 1/2+x,1/2-y,-z
5 z,x,y
6 1/2+z,1/2-x,-y
7 1/2-z,-x,1/2+y
8 -z,1/2+x,1/2-y
9 y,z,x
10 -y,1/2+z,1/2-x
11 1/2+y,1/2-z,-x
12 1/2-y,-z,1/2+x
_cell_length_a 12.0262(4)
_cell_length_b 12.0262(4)
_cell_length_c 12.0262(4)
_cell_angle_alpha 90
_cell_angle_beta 90
_cell_angle_gamma 90
_cell_formula_units_Z 4
loop_
_atom_type_symbol
_atom_type_radius_bond
C 0.68
H 0.23
Br 1.21
Co 1.26
N 0.68
loop_
_atom_site_label
_atom_site_type_symbol
_atom_site_fract_x
_atom_site_fract_y
_atom_site_fract_z
C1 C -0.01818(9) 0.88132(9) 0.81777(9)
H1 H -0.02550 0.93650 0.75940
H2 H -0.04630 0.81110 0.78970
C2 C 0.25516(9) 0.95046(9) 0.95277(9)
H3 H 0.30450 0.92280 0.89640
H4 H 0.24800 0.89610 1.01080
H5 H 0.28470 1.01810 0.98310
C3 C 0.15906(9) 1.06086(9) 0.81799(9)
H6 H 0.18150 1.12870 0.85360
H7 H 0.09010 1.07260 0.77950
H8 H 0.21520 1.03830 0.76590
C4 C 0.10290(9) 0.86876(9) 0.84907(9)
H9 H 0.11150 0.80660 0.89970
H10 H 0.14650 0.85350 0.78300
N1 N -0.08399(7) 0.91601(7) 0.91601(7)
N2 N 0.14412(7) 0.97262(7) 0.90312(7)
Co1 Co 0.022053(12) 1.022053(12) 1.022053(12)
Br1 Br 0.139728(8) 1.139728(8) 1.139728(8)
Br2 Br 0.936679(9) 0.063321(9) 0.563321(9)
C1D C -0.18223(9) 0.98182(9) 0.88132(9)
H1D H -0.24060 0.97450 0.93650
H2D H -0.21030 0.95370 0.81110
C2D C -0.04723(9) 1.25516(9) 0.95046(9)
H3D H -0.10360 1.30450 0.92280
H4D H 0.01080 1.24800 0.89610
H5D H -0.01690 1.28470 1.01810
C3D C -0.18201(9) 1.15906(9) 1.06086(9)
H6D H -0.14640 1.18150 1.12870
H7D H -0.22050 1.09010 1.07260
H8D H -0.23410 1.21520 1.03830
C4D C -0.15093(9) 1.10290(9) 0.86876(9)
H9D H -0.10030 1.11150 0.80660
H10D H -0.21700 1.14650 0.85350
N2D N -0.09688(7) 1.14412(7) 0.97262(7)
C1H C -0.11868(9) 0.81777(9) 0.98182(9)
H1H H -0.06350 0.75940 0.97450
H2H H -0.18890 0.78970 0.95370
C2H C -0.04954(9) 0.95277(9) 1.25516(9)
H3H H -0.07720 0.89640 1.30450
H4H H -0.10390 1.01080 1.24800
H5H H 0.01810 0.98310 1.28470
C3H C 0.06086(9) 0.81799(9) 1.15906(9)
H6H H 0.12870 0.85360 1.18150
H7H H 0.07260 0.77950 1.09010
H8H H 0.03830 0.76590 1.21520
C4H C -0.13124(9) 0.84907(9) 1.10290(9)
H9H H -0.19340 0.89970 1.11150
H10H H -0.14650 0.78300 1.14650
N2H N -0.02738(7) 0.90312(7) 1.14412(7)
#END

data_CSD_CIF_DMAECU01
_audit_creation_date 2004-09-27
_audit_creation_method CSD-ConQuest-V1
_database_code_CSD DMAECU01
_database_code_depnum_ccdc_archive 'CCDC 239344'
_chemical_formula_sum 'C12 H30 Br2 Cu1 N4'
_chemical_formula_moiety
;
C12 H30 Br1 Cu1 N4 1+,Br1 1-
;
_journal_coden_Cambridge 1078
_journal_year 2004
_journal_name_full 'CSD Communication(Private Communication) '
loop_
_publ_author_name
"M.H.Prosenc"
"J.-P.Klockner"
_chemical_name_systematic
;
Bromo-(N,N,N-tris(2-(N',N'-dimethylamino)ethyl)amine)-copper(ii) bromide
;
_cell_volume   1728.216
_exptl_special_details
;
contribution from Institut fur Anorganische und Angewandte Chemie, der 
Universitat Hamburg, Martin-Luther-King-Platz 6, D-20146 Hamburg
;
_diffrn_ambient_temperature 153
#These two values have been output from a single CSD field.
_refine_ls_R_factor_gt 0.0253
_refine_ls_wR_factor_gt 0.0253
_symmetry_cell_setting cubic
_symmetry_space_group_name_H-M 'P 21 3'
_symmetry_Int_Tables_number 198
loop_
_symmetry_equiv_pos_site_id
_symmetry_equiv_pos_as_xyz
1 x,y,z
2 1/2-x,-y,1/2+z
3 -x,1/2+y,1/2-z
4 1/2+x,1/2-y,-z
5 z,x,y
6 1/2+z,1/2-x,-y
7 1/2-z,-x,1/2+y
8 -z,1/2+x,1/2-y
9 y,z,x
10 -y,1/2+z,1/2-x
11 1/2+y,1/2-z,-x
12 1/2-y,-z,1/2+x
_cell_length_a 12.0005(7)
_cell_length_b 12.0005(7)
_cell_length_c 12.0005(7)
_cell_angle_alpha 90
_cell_angle_beta 90
_cell_angle_gamma 90
_cell_formula_units_Z 4
loop_
_atom_type_symbol
_atom_type_radius_bond
C 0.68
H 0.23
Br 1.21
Cu 1.52
N 0.68
loop_
_atom_site_label
_atom_site_type_symbol
_atom_site_fract_x
_atom_site_fract_y
_atom_site_fract_z
Cu1 Cu 0.51700(3) 0.98300(3) 0.01700(3)
Br1 Br 0.63213(2) 0.86787(2) 0.13213(2)
N1 N 0.41903(19) 1.08097(19) -0.08097(19)
C1 C 0.4516(3) 1.0481(3) 0.2573(2)
H1 H 0.43270 1.10710 0.31050
H2 H 0.51810 1.00830 0.28320
H3 H 0.38910 0.99580 0.25140
C2 C 0.3854(2) 1.1819(2) -0.0162(2)
H4 H 0.31450 1.21180 -0.04610
H5 H 0.44320 1.24030 -0.02360
N2 N 0.47392(19) 1.09794(19) 0.14677(19)
C3 C 0.3708(2) 1.1517(2) 0.1051(2)
H6 H 0.35500 1.21970 0.14910
H7 H 0.30700 1.10010 0.11360
C4 C 0.5629(3) 1.1823(3) 0.1619(3)
H8 H 0.54170 1.23380 0.22170
H9 H 0.57300 1.22400 0.09240
H10 H 0.63270 1.14500 0.18170
Br2 Br 0.56609(3) 1.43391(3) -0.06609(3)
N2E N 0.64677(19) 1.02608(19) -0.09794(19)
C1E C 0.7573(3) 1.0484(3) -0.0481(2)
H1E H 0.81050 1.06730 -0.10710
H2E H 0.78320 0.98190 -0.00830
H3E H 0.75140 1.11090 0.00420
C3E C 0.6051(2) 1.1292(2) -0.1517(2)
C2E C 0.4838(2) 1.1146(2) -0.1819(2)
C2K C 0.3181(2) 1.0162(2) -0.1146(2)
H4K H 0.28820 1.04610 -0.18550
H5K H 0.25970 1.02360 -0.05680
C3K C 0.3483(2) 0.8949(2) -0.1292(2)
N2K N 0.40206(19) 0.85323(19) -0.02608(19)
C1K C 0.4519(3) 0.7427(3) -0.0484(2)
H1K H 0.39290 0.68950 -0.06730
H2K H 0.49170 0.71680 0.01810
H3K H 0.50420 0.74860 -0.11090
C4K C 0.3177(3) 0.8381(3) 0.0629(3)
H8K H 0.26620 0.77830 0.04170
H9K H 0.27600 0.90760 0.07300
H10K H 0.35500 0.81830 0.13270
H6K H 0.28030 0.85090 -0.14500
H7K H 0.39990 0.88640 -0.19300
H4E H 0.45390 1.18550 -0.21180
H5E H 0.47640 1.05680 -0.24030
H6E H 0.64910 1.14500 -0.21970
H7E H 0.61360 1.19300 -0.10010
C4E C 0.6619(3) 0.9371(3) -0.1823(3)
H8E H 0.72170 0.95830 -0.23380
H9E H 0.59240 0.92700 -0.22400
H10E H 0.68170 0.86730 -0.14500
#END

data_CSD_CIF_DMAECU02
_audit_creation_date 2011-08-03
_audit_creation_method CSD-ConQuest-V1
_database_code_CSD DMAECU02
_database_code_depnum_ccdc_archive 'CCDC 808281'
_chemical_formula_sum 'C12 H30 Br2 Cu1 N4'
_chemical_formula_moiety
;
C12 H30 Br1 Cu1 N4 1+,Br1 1-
;
_journal_coden_Cambridge 222
_journal_volume 40
_journal_year 2011
_journal_page_first 4909
_journal_name_full 'Dalton Trans. '
loop_
_publ_author_name
"W.T.Eckenhoff"
"T.Pintauer"
_chemical_name_systematic
;
(tris(2-(dimethylamino)ethyl)amine)-bromo-copper(ii) bromide
;
_cell_volume   1750.213
_exptl_crystal_colour 'green'
_exptl_crystal_density_diffrn 1.722
_exptl_crystal_description 'rhomboids'
_diffrn_ambient_temperature 150
#These two values have been output from a single CSD field.
_refine_ls_R_factor_gt 0.0185
_refine_ls_wR_factor_gt 0.0185
_symmetry_cell_setting cubic
_symmetry_space_group_name_H-M 'P 21 3'
_symmetry_Int_Tables_number 198
loop_
_symmetry_equiv_pos_site_id
_symmetry_equiv_pos_as_xyz
1 x,y,z
2 1/2-x,-y,1/2+z
3 -x,1/2+y,1/2-z
4 1/2+x,1/2-y,-z
5 z,x,y
6 1/2+z,1/2-x,-y
7 1/2-z,-x,1/2+y
8 -z,1/2+x,1/2-y
9 y,z,x
10 -y,1/2+z,1/2-x
11 1/2+y,1/2-z,-x
12 1/2-y,-z,1/2+x
_cell_length_a 12.0512(3)
_cell_length_b 12.0512(3)
_cell_length_c 12.0512(3)
_cell_angle_alpha 90
_cell_angle_beta 90
_cell_angle_gamma 90
_cell_formula_units_Z 4
loop_
_atom_type_symbol
_atom_type_radius_bond
C 0.68
H 0.23
Br 1.21
Cu 1.32
N 0.68
loop_
_atom_site_label
_atom_site_type_symbol
_atom_site_fract_x
_atom_site_fract_y
_atom_site_fract_z
Br1 Br 0.117707(12) 0.117707(12) 0.117707(12)
Cu1 Cu 0.232761(15) 0.232761(15) 0.232761(15)
C1 C 0.43121(13) 0.36419(13) 0.26614(14)
H1 H 0.48810 0.30770 0.27350
H2 H 0.46050 0.43320 0.29540
N1 N 0.34725(11) 0.27628(11) 0.10274(11)
C2 C 0.40151(14) 0.37884(14) 0.14480(13)
H3 H 0.35160 0.44140 0.13640
H4 H 0.46810 0.39380 0.10210
N2 N 0.33078(10) 0.33078(10) 0.33078(10)
C3 C 0.29758(16) 0.29887(14) -0.00706(14)
H5 H 0.24410 0.35760 -0.00040
H6 H 0.26160 0.23310 -0.03400
H7 H 0.35470 0.32060 -0.05810
C4 C 0.43152(15) 0.18723(15) 0.08787(15)
H8 H 0.39560 0.12060 0.06310
H9 H 0.46810 0.17350 0.15730
H10 H 0.48510 0.21020 0.03360
Br2 Br 0.683701(15) 0.183701(15) 0.316299(15)
C1D C 0.26614(13) 0.43121(13) 0.36419(14)
C1H C 0.36419(13) 0.26614(13) 0.43121(14)
H1D H 0.27350 0.48810 0.30770
H1H H 0.30770 0.27350 0.48810
H2D H 0.29540 0.46050 0.43320
H2H H 0.43320 0.29540 0.46050
N1D N 0.10274(11) 0.34725(11) 0.27628(11)
N1H N 0.27628(11) 0.10274(11) 0.34725(11)
C2D C 0.14480(14) 0.40151(14) 0.37884(13)
C2H C 0.37884(14) 0.14480(14) 0.40151(13)
H3D H 0.13640 0.35160 0.44140
H3H H 0.44140 0.13640 0.35160
H4D H 0.10210 0.46810 0.39380
H4H H 0.39380 0.10210 0.46810
C3D C -0.00706(16) 0.29758(14) 0.29887(14)
C3H C 0.29887(16) -0.00706(14) 0.29758(14)
H5D H -0.00040 0.24410 0.35760
H5H H 0.35760 -0.00040 0.24410
H6D H -0.03400 0.26160 0.23310
H6H H 0.23310 -0.03400 0.26160
H7D H -0.05810 0.35470 0.32060
H7H H 0.32060 -0.05810 0.35470
C4D C 0.08787(15) 0.43152(15) 0.18723(15)
C4H C 0.18723(15) 0.08787(15) 0.43152(15)
H8D H 0.06310 0.39560 0.12060
H8H H 0.12060 0.06310 0.39560
H9D H 0.15730 0.46810 0.17350
H9H H 0.17350 0.15730 0.46810
H10D H 0.03360 0.48510 0.21020
H10H H 0.21020 0.03360 0.48510
#END

data_CSD_CIF_DORBIY
_audit_creation_date 2019-08-13
_audit_creation_method CSD-ConQuest-V1
_database_code_CSD DORBIY
_database_code_depnum_ccdc_archive 'CCDC 1918848'
_chemical_formula_sum 'C15 H15 Be1 Br2 N3'
_chemical_formula_moiety
;
C15 H15 Be1 Br1 N3 1+,Br1 1-
;
_journal_coden_Cambridge 179
_journal_volume 58
_journal_year 2019
_journal_page_first 11459
_journal_name_full 'Angew.Chem.,Int.Ed. '
loop_
_publ_author_name
"A.Paparo"
"C.D.Smith"
"C.Jones"
_chemical_name_systematic
;
bromo-tris(pyridine)-beryllium bromide
;
_cell_volume   1677.270
_exptl_crystal_colour 'colorless'
_exptl_crystal_density_diffrn 1.608
_exptl_crystal_description 'block'
_diffrn_ambient_temperature 123
#These two values have been output from a single CSD field.
_refine_ls_R_factor_gt 0.0253
_refine_ls_wR_factor_gt 0.0253
_symmetry_cell_setting cubic
_symmetry_space_group_name_H-M 'P 21 3'
_symmetry_Int_Tables_number 198
loop_
_symmetry_equiv_pos_site_id
_symmetry_equiv_pos_as_xyz
1 x,y,z
2 z,x,y
3 y,z,x
4 1/2-y,-z,1/2+x
5 1/2+z,1/2-x,-y
6 -y,1/2+z,1/2-x
7 1/2-z,-x,1/2+y
8 -z,1/2+x,1/2-y
9 1/2+y,1/2-z,-x
10 1/2-x,-y,1/2+z
11 1/2+x,1/2-y,-z
12 -x,1/2+y,1/2-z
_cell_length_a 11.8814(1)
_cell_length_b 11.8814(1)
_cell_length_c 11.8814(1)
_cell_angle_alpha 90
_cell_angle_beta 90
_cell_angle_gamma 90
_cell_formula_units_Z 4
loop_
_atom_type_symbol
_atom_type_radius_bond
C 0.68
H 0.23
Be 0.35
Br 1.21
N 0.68
loop_
_atom_site_label
_atom_site_type_symbol
_atom_site_fract_x
_atom_site_fract_y
_atom_site_fract_z
Br1 Br 0.54643(3) 0.45357(3) -0.04643(3)
N1 N 0.5137(3) 0.5924(3) 0.1826(3)
C1 C 0.4923(4) 0.6870(4) 0.2404(4)
H1 H 0.43949 0.73919 0.21067
C2 C 0.5439(4) 0.7111(5) 0.3413(4)
H2 H 0.52530 0.77805 0.38092
C3 C 0.6230(5) 0.6374(5) 0.3846(4)
H3 H 0.65947 0.65254 0.45416
C4 C 0.6473(4) 0.5415(5) 0.3242(4)
H4 H 0.70203 0.48974 0.35111
C5 C 0.5919(4) 0.5211(4) 0.2244(4)
H5 H 0.60923 0.45452 0.18361
Be1 Be 0.4416(5) 0.5584(5) 0.0584(5)
Br2 Br 0.79575(4) 0.29575(4) 0.20425(4)
N1E N 0.4076(3) 0.6826(3) -0.0137(3)
C1E C 0.3130(4) 0.7404(4) 0.0077(4)
H1E H 0.26081 0.71067 0.06051
C2E C 0.2889(4) 0.8413(5) -0.0439(4)
H2E H 0.22195 0.88092 -0.02530
C3E C 0.3626(5) 0.8846(5) -0.1230(4)
H3E H 0.34746 0.95416 -0.15947
C4E C 0.4585(4) 0.8242(5) -0.1473(4)
H4E H 0.51026 0.85111 -0.20203
C5E C 0.4789(4) 0.7244(4) -0.0919(4)
H5E H 0.54548 0.68361 -0.10923
N1F N 0.3174(3) 0.4863(3) 0.0924(3)
C1F C 0.2596(4) 0.5077(4) 0.1870(4)
H1F H 0.28933 0.56051 0.23919
C2F C 0.1587(4) 0.4561(5) 0.2111(4)
H2F H 0.11908 0.47470 0.27805
C3F C 0.1154(5) 0.3770(5) 0.1374(4)
H3F H 0.04584 0.34053 0.15254
C4F C 0.1758(4) 0.3527(5) 0.0415(4)
H4F H 0.14889 0.29797 -0.01026
C5F C 0.2756(4) 0.4081(4) 0.0211(4)
H5F H 0.31639 0.39077 -0.04548
#END

data_CSD_CIF_ELETIZ
_audit_creation_date 2011-03-25
_audit_creation_method CSD-ConQuest-V1
_database_code_CSD ELETIZ
_database_code_depnum_ccdc_archive 'CCDC 778472'
_chemical_formula_sum 'C30 H39 B1 Cu1 F4 N1 S3'
_chemical_formula_moiety
;
C30 H39 Cu1 N1 S3 1+,B1 F4 1-
;
_journal_coden_Cambridge 155
_journal_volume 366
_journal_year 2011
_journal_page_first 76
_journal_name_full 'Inorg.Chim.Acta '
loop_
_publ_author_name
"M.Blomenkemper"
"H.Schroder"
"T.Pape"
"F.E.Hahn"
_chemical_name_systematic
;
(3-(Benzylsulfanyl)-N,N-bis(3-(benzylsulfanyl)propyl)propan-1-amine)-copper(i)
 tetrafluoroborate
;
_cell_volume  25759.934
_exptl_crystal_colour 'colorless'
_exptl_crystal_density_diffrn 1.362
_exptl_crystal_description 'prism'
_diffrn_ambient_temperature 153
#These two values have been output from a single CSD field.
_refine_ls_R_factor_gt 0.0393
_refine_ls_wR_factor_gt 0.0393
_symmetry_cell_setting cubic
_symmetry_space_group_name_H-M 'P 21 3'
_symmetry_Int_Tables_number 198
loop_
_symmetry_equiv_pos_site_id
_symmetry_equiv_pos_as_xyz
1 x,y,z
2 1/2-x,-y,1/2+z
3 -x,1/2+y,1/2-z
4 1/2+x,1/2-y,-z
5 z,x,y
6 1/2+z,1/2-x,-y
7 1/2-z,-x,1/2+y
8 -z,1/2+x,1/2-y
9 y,z,x
10 -y,1/2+z,1/2-x
11 1/2+y,1/2-z,-x
12 1/2-y,-z,1/2+x
_cell_length_a 29.5335(10)
_cell_length_b 29.5335(10)
_cell_length_c 29.5335(10)
_cell_angle_alpha 90
_cell_angle_beta 90
_cell_angle_gamma 90
_cell_formula_units_Z 32
loop_
_atom_type_symbol
_atom_type_radius_bond
C 0.68
H 0.23
B 0.83
Cu 1.32
F 0.64
N 0.68
S 1.02
loop_
_atom_site_label
_atom_site_type_symbol
_atom_site_fract_x
_atom_site_fract_y
_atom_site_fract_z
Cu1 Cu 0.947092(16) 0.390880(17) 0.302224(16)
N1 N 0.93069(12) 0.32779(12) 0.27503(11)
S1 S 0.95274(3) 0.38400(4) 0.37871(3)
S2 S 0.88946(4) 0.44019(4) 0.28599(4)
S3 S 1.00945(4) 0.41671(4) 0.26523(4)
C1 C 0.91731(15) 0.29416(15) 0.31001(15)
H1 H 0.91710 0.26380 0.29580
H2 H 0.88590 0.30090 0.31960
C2 C 0.94711(16) 0.29209(15) 0.35235(15)
H3 H 0.97900 0.29710 0.34330
H4 H 0.94500 0.26130 0.36550
C3 C 0.93439(15) 0.32689(16) 0.38896(14)
H5 H 0.94740 0.31670 0.41810
H6 H 0.90100 0.32700 0.39230
C4 C 1.01259(13) 0.38005(15) 0.39440(14)
H7 H 1.02700 0.35550 0.37670
H8 H 1.02790 0.40880 0.38660
C5 C 1.01894(13) 0.37074(14) 0.44395(14)
C6 C 1.04147(16) 0.33175(17) 0.45787(17)
H9 H 1.05240 0.31080 0.43610
C7 C 1.04793(18) 0.32365(19) 0.5037(2)
H10 H 1.06360 0.29710 0.51300
C8 C 1.03210(18) 0.3533(2) 0.53578(17)
H11 H 1.03650 0.34710 0.56700
C9 C 1.00982(16) 0.39199(18) 0.52235(15)
H12 H 0.99890 0.41290 0.54420
C10 C 1.00352(14) 0.40014(15) 0.47686(14)
H13 H 0.98810 0.42690 0.46780
C11 C 0.89244(16) 0.33014(16) 0.24231(15)
H14 H 0.88230 0.29880 0.23580
H15 H 0.90400 0.34300 0.21360
C12 C 0.85178(15) 0.35727(16) 0.25657(16)
H16 H 0.84710 0.35280 0.28950
H17 H 0.82480 0.34510 0.24080
C13 C 0.85463(15) 0.40796(16) 0.24717(15)
H18 H 0.82360 0.42060 0.24780
H19 H 0.86660 0.41230 0.21610
C14 C 0.85356(14) 0.44206(17) 0.33636(14)
H20 H 0.84940 0.41090 0.34810
H21 H 0.86890 0.46000 0.36010
C15 C 0.80758(14) 0.46264(14) 0.32687(13)
C16 C 0.76850(16) 0.43942(17) 0.33836(17)
H22 H 0.77060 0.41010 0.35150
C17 C 0.72647(17) 0.45856(19) 0.33083(19)
H23 H 0.70000 0.44250 0.33960
C18 C 0.72233(17) 0.50010(17) 0.31103(18)
H24 H 0.69320 0.51280 0.30570
C19 C 0.76075(17) 0.52333(16) 0.29886(17)
H25 H 0.75810 0.55220 0.28490
C20 C 0.80338(15) 0.50514(14) 0.30669(15)
H26 H 0.82970 0.52160 0.29830
C21 C 0.97032(16) 0.30843(17) 0.25081(15)
H27 H 0.96060 0.27980 0.23640
H28 H 0.99350 0.30060 0.27370
C22 C 0.99293(18) 0.33757(19) 0.21457(16)
H29 H 1.00630 0.31720 0.19150
H30 H 0.96920 0.35570 0.19930
C23 C 1.02928(17) 0.36934(19) 0.23077(17)
H31 H 1.04530 0.38160 0.20400
H32 H 1.05150 0.35180 0.24870
C24 C 0.98801(15) 0.45510(17) 0.22214(16)
H33 H 0.97030 0.43750 0.19980
H34 H 0.96720 0.47710 0.23660
C25 C 1.02450(15) 0.48060(15) 0.19772(16)
C26 C 1.05371(18) 0.5084(2) 0.2205(2)
H35 H 1.05190 0.50970 0.25260
C27 C 1.08575(18) 0.5349(2) 0.1987(2)
H36 H 1.10520 0.55420 0.21560
C28 C 1.0890(2) 0.5329(2) 0.1541(3)
H37 H 1.11130 0.55040 0.13900
C29 C 1.0613(3) 0.5066(3) 0.1304(2)
H38 H 1.06410 0.50600 0.09830
C30 C 1.0276(2) 0.4794(2) 0.15167(19)
H39 H 1.00780 0.46090 0.13430
Cu2 Cu 0.901303(16) 0.308221(16) 0.559963(16)
N2 N 0.83682(11) 0.28166(11) 0.57315(11)
S4 S 0.94795(3) 0.29036(3) 0.61846(3)
S5 S 0.89345(3) 0.38375(3) 0.55046(3)
S6 S 0.92779(4) 0.27341(4) 0.49699(3)
C31 C 0.83877(15) 0.24465(14) 0.60758(14)
H40 H 0.85180 0.21750 0.59290
H41 H 0.80740 0.23710 0.61650
C32 C 0.86577(15) 0.25422(15) 0.65039(14)
H42 H 0.86020 0.28600 0.65940
H43 H 0.85390 0.23460 0.67490
C33 C 0.91604(15) 0.24709(14) 0.64714(15)
H44 H 0.92150 0.21800 0.63140
H45 H 0.92820 0.24400 0.67820
C34 C 0.94663(16) 0.33538(15) 0.66001(14)
H46 H 0.96340 0.36180 0.64790
H47 H 0.91480 0.34480 0.66480
C35 C 0.96687(15) 0.32210(14) 0.70503(15)
C36 C 1.01026(14) 0.30295(14) 0.70746(15)
H48 H 1.02760 0.29950 0.68060
C37 C 1.02814(16) 0.28899(15) 0.74834(17)
H49 H 1.05720 0.27530 0.74930
C38 C 1.00381(18) 0.29498(15) 0.78766(16)
H50 H 1.01610 0.28550 0.81580
C39 C 0.96177(18) 0.31469(16) 0.78609(16)
H51 H 0.94530 0.31940 0.81330
C40 C 0.94316(17) 0.32783(16) 0.74500(16)
H52 H 0.91380 0.34090 0.74430
C41 C 0.80494(13) 0.31655(13) 0.59030(13)
H53 H 0.81410 0.32460 0.62150
H54 H 0.77450 0.30270 0.59220
C42 C 0.80103(14) 0.36030(13) 0.56309(14)
H55 H 0.80210 0.35270 0.53050
H56 H 0.77110 0.37410 0.56930
C43 C 0.83756(14) 0.39518(14) 0.57297(14)
H57 H 0.84020 0.39840 0.60620
H58 H 0.82730 0.42470 0.56090
C44 C 0.88478(15) 0.39465(14) 0.49027(13)
H59 H 0.91260 0.38610 0.47360
H60 H 0.85980 0.37520 0.47920
C45 C 0.87363(14) 0.44324(14) 0.48009(13)
C46 C 0.83740(16) 0.45426(16) 0.45320(15)
H61 H 0.81950 0.43080 0.44040
C47 C 0.82648(19) 0.49925(18) 0.44435(18)
H62 H 0.80070 0.50630 0.42640
C48 C 0.8524(2) 0.53290(18) 0.46118(19)
H63 H 0.84490 0.56360 0.45490
C49 C 0.88968(18) 0.52295(16) 0.48753(17)
H64 H 0.90810 0.54670 0.49910
C50 C 0.90004(17) 0.47865(14) 0.49686(15)
H65 H 0.92570 0.47190 0.51510
C51 C 0.81539(14) 0.26207(13) 0.53182(14)
H66 H 0.80640 0.28740 0.51190
H67 H 0.78730 0.24640 0.54120
C52 C 0.84366(15) 0.22875(14) 0.50357(15)
H68 H 0.86040 0.20870 0.52460
H69 H 0.82270 0.20950 0.48590
C53 C 0.87717(15) 0.24983(16) 0.47138(14)
H70 H 0.86160 0.27420 0.45440
H71 H 0.88650 0.22650 0.44910
C54 C 0.95781(15) 0.22291(15) 0.51461(14)
H72 H 0.98640 0.23170 0.52970
H73 H 0.93920 0.20610 0.53680
C55 C 0.96830(14) 0.19242(15) 0.47485(14)
C56 C 1.00121(15) 0.20469(17) 0.44334(15)
H74 H 1.01730 0.23230 0.44700
C57 C 1.01064(17) 0.17714(18) 0.40698(16)
H75 H 1.03340 0.18570 0.38600
C58 C 0.9875(2) 0.1377(2) 0.40097(18)
H76 H 0.99360 0.11920 0.37540
C59 C 0.9552(2) 0.12476(19) 0.43195(19)
H77 H 0.93960 0.09690 0.42810
C60 C 0.94559(17) 0.15211(17) 0.46858(17)
H78 H 0.92310 0.14310 0.48970
Cu3 Cu 0.80194(2) 0.69806(2) 0.30194(2)
N3 N 0.76059(14) 0.73941(14) 0.26059(14)
S7 S 0.86617(4) 0.73797(5) 0.32001(4)
C61 C 0.78497(19) 0.78081(18) 0.24587(17)
H79 H 0.76250 0.80200 0.23280
H80 H 0.80610 0.77220 0.22130
C62 C 0.8116(2) 0.80592(17) 0.28150(17)
H81 H 0.79550 0.80300 0.31080
H82 H 0.81210 0.83850 0.27340
C63 C 0.8604(2) 0.7898(2) 0.28796(16)
H83 H 0.87770 0.81400 0.30350
H84 H 0.87430 0.78540 0.25780
C64 C 0.85865(16) 0.75923(17) 0.37795(15)
H85 H 0.82760 0.77130 0.38140
H86 H 0.86240 0.73390 0.39960
C65 C 0.89238(15) 0.79605(16) 0.38897(14)
C66 C 0.87859(19) 0.84042(18) 0.39261(18)
H87 H 0.84750 0.84790 0.38960
C67 C 0.9102(2) 0.8742(2) 0.4007(2)
H88 H 0.90080 0.90490 0.40280
C68 C 0.9549(2) 0.8634(2) 0.40554(19)
H89 H 0.97630 0.88660 0.41140
C69 C 0.96908(19) 0.8199(2) 0.40209(17)
H90 H 1.00030 0.81290 0.40520
C70 C 0.93827(17) 0.78588(19) 0.39411(15)
H91 H 0.94830 0.75540 0.39210
Cu4 Cu 0.809967(18) 0.809967(18) 0.809967(18)
N4 N 0.76860(12) 0.76860(12) 0.76860(12)
S8 S 0.86755(4) 0.76127(4) 0.82796(4)
C71 C 0.76449(16) 0.72245(15) 0.78795(17)
H92 H 0.74550 0.70430 0.76720
H93 H 0.74780 0.72490 0.81690
C72 C 0.80848(16) 0.69557(14) 0.79705(16)
H94 H 0.80050 0.66320 0.80050
H95 H 0.82830 0.69820 0.77010
C73 C 0.83518(16) 0.71011(15) 0.83813(17)
H96 H 0.85610 0.68540 0.84690
H97 H 0.81410 0.71530 0.86370
C74 C 0.88974(16) 0.77094(15) 0.88464(15)
H98 H 0.90940 0.79810 0.88420
H99 H 0.86420 0.77720 0.90540
C75 C 0.91647(15) 0.73130(15) 0.90252(15)
C76 C 0.90621(15) 0.71373(17) 0.94522(16)
H100 H 0.88260 0.72690 0.96270
C77 C 0.93004(18) 0.67742(18) 0.96225(18)
H101 H 0.92290 0.66590 0.99140
C78 C 0.96412(17) 0.65774(17) 0.93740(18)
H102 H 0.98020 0.63240 0.94900
C79 C 0.97464(17) 0.67520(16) 0.89545(18)
H103 H 0.99840 0.66210 0.87820
C80 C 0.95088(16) 0.71154(15) 0.87822(15)
H104 H 0.95840 0.72310 0.84920
B1 B 0.77852(17) 0.16523(17) 0.90286(17)
F1 F 0.80347(12) 0.15947(11) 0.86437(11)
F2 F 0.80306(15) 0.18890(14) 0.93344(12)
F3 F 0.76662(14) 0.12438(11) 0.92114(12)
F4 F 0.74077(11) 0.18914(14) 0.89269(13)
B2 B 0.82102(17) 0.10026(17) 0.20917(18)
F5 F 0.83798(13) 0.13146(13) 0.17938(11)
F6 F 0.83455(10) 0.11124(10) 0.25192(9)
F7 F 0.77503(9) 0.09898(11) 0.20584(11)
F8 F 0.83827(10) 0.05792(11) 0.19858(12)
B3 B 0.11616(19) 0.61616(19) 0.88384(19)
F9 F 0.10856(13) 0.63861(11) 0.92355(10)
F10 F 0.14369(9) 0.64369(9) 0.85631(9)
B4 B 0.8899(2) 0.3899(2) 0.1101(2)
F11 F 0.91253(15) 0.36189(14) 0.08213(15)
F12 F 0.86172(12) 0.36172(12) 0.13828(12)
S7E S 0.82001(4) 0.63383(5) 0.26203(4)
S7K S 0.76203(4) 0.67999(5) 0.36617(4)
C61E C 0.74587(19) 0.71503(18) 0.21919(17)
C61K C 0.71919(19) 0.75413(18) 0.28497(17)
H79E H 0.73280 0.73750 0.19800
H79K H 0.69800 0.76720 0.26250
H80E H 0.72130 0.69390 0.22780
H80K H 0.72780 0.77870 0.30610
C62E C 0.7815(2) 0.68840(17) 0.19408(17)
C62K C 0.69408(20) 0.71850(17) 0.31160(17)
H81E H 0.81080 0.70450 0.19700
H81K H 0.69700 0.68920 0.29550
H82E H 0.77340 0.68790 0.16150
H82K H 0.66150 0.72660 0.31210
C63E C 0.78796(20) 0.6396(2) 0.21020(16)
C63K C 0.7102(2) 0.71204(20) 0.36040(16)
H83E H 0.80350 0.62230 0.18600
H83K H 0.68600 0.69650 0.37770
H84E H 0.75780 0.62570 0.21460
H84K H 0.71460 0.74220 0.37430
C64E C 0.87795(16) 0.64135(17) 0.24077(15)
C64K C 0.74077(16) 0.62205(17) 0.35865(15)
H85E H 0.88140 0.67240 0.22870
H85K H 0.72870 0.61860 0.32760
H86E H 0.89960 0.63760 0.26610
H86K H 0.76610 0.60040 0.36240
C65E C 0.88897(15) 0.60762(16) 0.20395(14)
C65K C 0.70395(15) 0.61103(16) 0.39238(14)
C66E C 0.89261(19) 0.62141(18) 0.15958(18)
C66K C 0.65958(19) 0.60739(18) 0.37859(18)
H87E H 0.88960 0.65250 0.15210
H87K H 0.65210 0.61040 0.34750
C67E C 0.9007(2) 0.5898(2) 0.1258(2)
C67K C 0.6258(2) 0.5993(2) 0.4102(2)
H88E H 0.90280 0.59920 0.09510
H88K H 0.59510 0.59720 0.40080
C68E C 0.90554(20) 0.5451(2) 0.13660(19)
C68K C 0.6366(2) 0.59446(20) 0.45490(19)
H89E H 0.91140 0.52370 0.11340
H89K H 0.61340 0.58860 0.47630
C69E C 0.90209(19) 0.53092(20) 0.18010(17)
C69K C 0.68010(19) 0.59791(20) 0.46908(17)
H90E H 0.90520 0.49970 0.18710
H90K H 0.68710 0.59480 0.50030
C70E C 0.89411(17) 0.56173(19) 0.21412(15)
C70K C 0.71412(17) 0.60589(19) 0.43827(15)
H91E H 0.89210 0.55170 0.24460
H91K H 0.74460 0.60790 0.44830
S8D S 0.82796(4) 0.86755(4) 0.76127(4)
S8H S 0.76127(4) 0.82796(4) 0.86755(4)
C71D C 0.78795(16) 0.76449(15) 0.72245(17)
C71H C 0.72245(16) 0.78795(15) 0.76449(17)
H92D H 0.76720 0.74550 0.70430
H92H H 0.70430 0.76720 0.74550
H93D H 0.81690 0.74780 0.72490
H93H H 0.72490 0.81690 0.74780
C72D C 0.79705(16) 0.80848(14) 0.69557(16)
C72H C 0.69557(16) 0.79705(14) 0.80848(16)
H94D H 0.80050 0.80050 0.66320
H94H H 0.66320 0.80050 0.80050
H95D H 0.77010 0.82830 0.69820
H95H H 0.69820 0.77010 0.82830
C73D C 0.83813(16) 0.83518(15) 0.71011(17)
C73H C 0.71011(16) 0.83813(15) 0.83518(17)
H96D H 0.84690 0.85610 0.68540
H96H H 0.68540 0.84690 0.85610
H97D H 0.86370 0.81410 0.71530
H97H H 0.71530 0.86370 0.81410
C74D C 0.88464(16) 0.88974(15) 0.77094(15)
C74H C 0.77094(16) 0.88464(15) 0.88974(15)
H98D H 0.88420 0.90940 0.79810
H98H H 0.79810 0.88420 0.90940
H99D H 0.90540 0.86420 0.77720
H99H H 0.77720 0.90540 0.86420
C75D C 0.90252(15) 0.91647(15) 0.73130(15)
C75H C 0.73130(15) 0.90252(15) 0.91647(15)
C76D C 0.94522(15) 0.90621(17) 0.71373(16)
C76H C 0.71373(15) 0.94522(17) 0.90621(16)
H100D H 0.96270 0.88260 0.72690
H100H H 0.72690 0.96270 0.88260
C77D C 0.96225(18) 0.93004(18) 0.67742(18)
C77H C 0.67742(18) 0.96225(18) 0.93004(18)
H101D H 0.99140 0.92290 0.66590
H101H H 0.66590 0.99140 0.92290
C78D C 0.93740(17) 0.96412(17) 0.65774(18)
C78H C 0.65774(17) 0.93740(17) 0.96412(18)
H102D H 0.94900 0.98020 0.63240
H102H H 0.63240 0.94900 0.98020
C79D C 0.89545(17) 0.97464(16) 0.67520(18)
C79H C 0.67520(17) 0.89545(16) 0.97464(18)
H103D H 0.87820 0.99840 0.66210
H103H H 0.66210 0.87820 0.99840
C80D C 0.87822(16) 0.95088(15) 0.71154(15)
C80H C 0.71154(16) 0.87822(15) 0.95088(15)
H104D H 0.84920 0.95840 0.72310
H104H H 0.72310 0.84920 0.95840
F9G F 0.07645(13) 0.60856(11) 0.86139(10)
F9J F 0.13861(13) 0.57645(11) 0.89144(10)
F11G F 0.91787(15) 0.41253(14) 0.13811(15)
F11J F 0.86189(15) 0.41787(14) 0.08747(15)
#END

data_CSD_CIF_ELUZOA
_audit_creation_date 2004-02-24
_audit_creation_method CSD-ConQuest-V1
_database_code_CSD ELUZOA
_database_code_depnum_ccdc_archive 'CCDC 222715'
_chemical_formula_sum 'C18 H21 I3 N4'
_chemical_formula_moiety
;
C18 H21 N4 3+,3(I1 1-)
;
_journal_coden_Cambridge 9
_journal_volume 42
_journal_year 2003
_journal_page_first 5900
_journal_name_full 'Inorg.Chem. '
loop_
_publ_author_name
"L.Karmazin"
"M.Mazzanti"
"J.Pecaut"
_chemical_name_systematic
;
tris((2-Pyridinio)methyl)amine tris(iodide)
;
_cell_volume   2302.792
_exptl_crystal_colour 'orange'
_exptl_crystal_density_diffrn 1.944
_exptl_crystal_description 'block'
_diffrn_ambient_temperature 193
#These two values have been output from a single CSD field.
_refine_ls_R_factor_gt 0.0203
_refine_ls_wR_factor_gt 0.0203
_symmetry_cell_setting cubic
_symmetry_space_group_name_H-M 'P 21 3'
_symmetry_Int_Tables_number 198
loop_
_symmetry_equiv_pos_site_id
_symmetry_equiv_pos_as_xyz
1 x,y,z
2 1/2-x,-y,1/2+z
3 -x,1/2+y,1/2-z
4 1/2+x,1/2-y,-z
5 z,x,y
6 1/2+z,1/2-x,-y
7 1/2-z,-x,1/2+y
8 -z,1/2+x,1/2-y
9 y,z,x
10 -y,1/2+z,1/2-x
11 1/2+y,1/2-z,-x
12 1/2-y,-z,1/2+x
_cell_length_a 13.2054(3)
_cell_length_b 13.2054(3)
_cell_length_c 13.2054(3)
_cell_angle_alpha 90
_cell_angle_beta 90
_cell_angle_gamma 90
_cell_formula_units_Z 4
loop_
_atom_type_symbol
_atom_type_radius_bond
C 0.68
H 0.23
I 1.40
N 0.68
loop_
_atom_site_label
_atom_site_type_symbol
_atom_site_fract_x
_atom_site_fract_y
_atom_site_fract_z
N1 N 0.39578(18) 0.39578(18) 0.39578(18)
N2 N 0.45307(19) 0.3267(2) 0.20189(19)
H1 H 0.399(3) 0.320(3) 0.223(3)
C1 C 0.4628(2) 0.4579(2) 0.3317(2)
H2 H 0.526(4) 0.484(3) 0.366(3)
H3 H 0.418(3) 0.507(3) 0.314(2)
C2 C 0.5085(2) 0.4002(2) 0.2448(2)
C3 C 0.6011(2) 0.4224(3) 0.2028(3)
H4 H 0.643(3) 0.470(3) 0.232(3)
C4 C 0.6334(3) 0.3697(3) 0.1169(3)
H5 H 0.704(3) 0.376(3) 0.099(3)
C5 C 0.5729(3) 0.2947(3) 0.0744(3)
H6 H 0.584(3) 0.263(3) 0.009(3)
C6 C 0.4831(2) 0.2737(3) 0.1199(2)
H7 H 0.431(3) 0.219(3) 0.097(3)
I1 I 0.212794(12) 0.212794(12) 0.212794(12)
I2 I 0.35895(2) 0.64105(2) 0.14105(2)
I3 I 0.579804(12) 0.579804(12) 0.579804(12)
C1D C 0.3317(2) 0.4628(2) 0.4579(2)
H2D H 0.366(4) 0.526(3) 0.484(3)
H3D H 0.314(3) 0.418(3) 0.507(2)
C2D C 0.2448(2) 0.5085(2) 0.4002(2)
N2D N 0.20189(19) 0.45307(20) 0.32670(19)
H1D H 0.223(3) 0.399(3) 0.320(3)
C6D C 0.1199(2) 0.4831(3) 0.2737(2)
C5D C 0.0744(3) 0.5729(3) 0.2947(3)
C4D C 0.1169(3) 0.6334(3) 0.3697(3)
C3D C 0.2028(2) 0.6011(3) 0.4224(3)
H4D H 0.232(3) 0.643(3) 0.470(3)
H5D H 0.099(3) 0.704(3) 0.376(3)
H6D H 0.009(3) 0.584(3) 0.263(3)
H7D H 0.097(3) 0.431(3) 0.219(3)
C1H C 0.4579(2) 0.3317(2) 0.4628(2)
H2H H 0.484(4) 0.366(3) 0.526(3)
H3H H 0.507(3) 0.314(3) 0.418(2)
C2H C 0.4002(2) 0.2448(2) 0.5085(2)
N2H N 0.32670(19) 0.20189(20) 0.45307(19)
H1H H 0.320(3) 0.223(3) 0.399(3)
C6H C 0.2737(2) 0.1199(3) 0.4831(2)
C5H C 0.2947(3) 0.0744(3) 0.5729(3)
C4H C 0.3697(3) 0.1169(3) 0.6334(3)
C3H C 0.4224(2) 0.2028(3) 0.6011(3)
H4H H 0.470(3) 0.232(3) 0.643(3)
H5H H 0.376(3) 0.099(3) 0.704(3)
H6H H 0.263(3) 0.009(3) 0.584(3)
H7H H 0.219(3) 0.097(3) 0.431(3)
#END

data_CSD_CIF_EWEGAR
_audit_creation_date 2021-06-24
_audit_creation_method CSD-ConQuest-V1
_database_code_CSD EWEGAR
_database_code_depnum_ccdc_archive 'CCDC 2043348'
_chemical_formula_sum 'C36 H98 Ag6 N12 O22 Rh4 S12'
_chemical_formula_moiety
;
2(C12 H36 Ag3 N6 Rh2 S6 3+),3(C4 H4 O5 2-),7(H2 O1)
;
_journal_coden_Cambridge 1220
_journal_volume 32
_journal_year 2021
_journal_page_first 8358
_journal_name_full 'Chem.-Eur.J. '
loop_
_publ_author_name
"M.Uno"
"T.Kojima"
"N.Kuwamura"
"N.Yoshinari"
"T.Konno"
_chemical_name_systematic
;
bis(hexakis(\m-2-aminoethane-1-thiolato)-di-rhodium-tri-silver) 
tris(2-hydroxybutanedioate) heptahydrate
;
_cell_volume   7278.826
_exptl_crystal_colour 'yellow'
_exptl_crystal_density_diffrn 2.264
_exptl_special_details
;
Absolute configuration

;
_exptl_crystal_description 'block'
_diffrn_ambient_temperature 100
_diffrn_radiation_probe x-ray
_diffrn_source synchrotron
_diffrn_special_details
;
twin

;
#These two values have been output from a single CSD field.
_refine_ls_R_factor_gt 0.029
_refine_ls_wR_factor_gt 0.029
loop_
_citation_database_id_CSD
_citation_special_details
EWEGEV "is a stereoisomer of this entry"
_symmetry_cell_setting cubic
_symmetry_space_group_name_H-M 'P 21 3'
_symmetry_Int_Tables_number 198
loop_
_symmetry_equiv_pos_site_id
_symmetry_equiv_pos_as_xyz
1 x,y,z
2 y,z,x
3 z,x,y
4 1/2+x,1/2-y,-z
5 1/2+y,1/2-z,-x
6 1/2+z,1/2-x,-y
7 -y,1/2+z,1/2-x
8 -z,1/2+x,1/2-y
9 1/2-z,-x,1/2+y
10 1/2-x,-y,1/2+z
11 1/2-y,-z,1/2+x
12 -x,1/2+y,1/2-z
_cell_length_a 19.380(2)
_cell_length_b 19.380(2)
_cell_length_c 19.380(2)
_cell_angle_alpha 90
_cell_angle_beta 90
_cell_angle_gamma 90
_cell_formula_units_Z 4
loop_
_atom_type_symbol
_atom_type_radius_bond
C 0.68
H 0.23
Ag 1.45
N 0.68
O 0.68
Rh 1.42
S 1.02
loop_
_atom_site_label
_atom_site_type_symbol
_atom_site_fract_x
_atom_site_fract_y
_atom_site_fract_z
S1 S 0.47897(9) 0.50492(9) 0.36782(9)
C1 C 0.4449(4) 0.6250(4) 0.4364(4)
H1 H 0.44809 0.67589 0.43868
H2 H 0.39548 0.61203 0.43758
C2 C 0.4772(4) 0.5995(4) 0.3697(4)
H3 H 0.52488 0.61750 0.36588
H4 H 0.45039 0.61687 0.32994
N1 N 0.4805(3) 0.5946(3) 0.4953(3)
H5 H 0.45740 0.60575 0.53463
H6 H 0.52365 0.61284 0.49825
S2 S 0.26149(9) 0.40364(9) 0.31756(9)
C3 C 0.2600(4) 0.3913(4) 0.1767(4)
H7 H 0.23755 0.40218 0.13212
H8 H 0.30871 0.40653 0.17442
C4 C 0.2229(4) 0.4281(4) 0.2354(4)
H9 H 0.17341 0.41540 0.23509
H10 H 0.22644 0.47865 0.22900
N2 N 0.2565(3) 0.3168(3) 0.1903(3)
H11 H 0.28297 0.29426 0.15876
H12 H 0.21214 0.30235 0.18466
Rh1 Rh 0.48779(3) 0.48779(3) 0.48779(3)
Rh2 Rh 0.28972(3) 0.28972(3) 0.28972(3)
Ag1 Ag 0.36879(3) 0.46310(3) 0.33305(3)
S3 S 0.76167(10) 0.75961(9) 0.88475(9)
C5 C 0.6313(4) 0.7827(4) 0.8368(4)
H13 H 0.58124 0.77327 0.84037
H14 H 0.63846 0.83291 0.84258
C6 C 0.6686(4) 0.7448(4) 0.8928(4)
H15 H 0.65872 0.69482 0.88929
H16 H 0.65239 0.76117 0.93836
N3 N 0.6563(3) 0.7612(3) 0.7682(3)
H17 H 0.63860 0.78981 0.73539
H18 H 0.64157 0.71761 0.75900
S4 S 0.84428(9) 0.98047(9) 0.95132(9)
C7 C 0.8760(4) 0.9695(4) 1.0905(4)
H19 H 0.86897 0.98740 1.13785
H20 H 0.86729 0.91920 1.09101
C8 C 0.8259(4) 1.0046(4) 1.0412(4)
H21 H 0.82961 1.05530 1.04635
H22 H 0.77806 0.99100 1.05305
N4 N 0.9478(3) 0.9829(3) 1.0684(3)
H23 H 0.97685 0.95593 1.09352
H24 H 0.95847 1.02777 1.07742
Rh3 Rh 0.76447(3) 0.76447(3) 0.76447(3)
Rh4 Rh 0.96341(3) 0.96341(3) 0.96341(3)
Ag2 Ag 0.79292(3) 0.87088(3) 0.92766(3)
C9 C 0.4269(5) 0.6721(4) 0.6691(4)
C10 C 0.4969(5) 0.6584(5) 0.6988(6)
H25 H 0.52240 0.70291 0.70436
C11 C 0.4929(5) 0.6225(7) 0.7662(5)
H26 H 0.46637 0.57928 0.76010
H27 H 0.46692 0.65203 0.79885
C12 C 0.5648(5) 0.6044(5) 0.7992(5)
O1 O 0.4052(4) 0.6411(4) 0.6158(4)
O2 O 0.3908(3) 0.7164(3) 0.6984(3)
O3 O 0.5331(3) 0.6144(4) 0.6487(3)
H28 H 0.53579 0.63508 0.61072
O4 O 0.5628(3) 0.5800(4) 0.8592(3)
O5 O 0.6178(3) 0.6184(3) 0.7665(3)
O6 O 0.7056(4) 0.5653(5) 0.8913(5)
O7 O 0.3169(5) 0.7202(5) 0.5345(4)
O8 O 0.5759(4) 0.4241(4) 0.9241(4)
S1A S 0.50492(9) 0.36782(9) 0.47897(9)
C1A C 0.6250(4) 0.4364(4) 0.4449(4)
H1A H 0.67589 0.43868 0.44809
H2A H 0.61203 0.43758 0.39548
C2A C 0.5995(4) 0.3697(4) 0.4772(4)
H3A H 0.61750 0.36588 0.52488
H4A H 0.61687 0.32994 0.45039
N1A N 0.5946(3) 0.4953(3) 0.4805(3)
H5A H 0.60575 0.53463 0.45740
H6A H 0.61284 0.49825 0.52365
S2A S 0.40364(9) 0.31756(9) 0.26149(9)
C3A C 0.3913(4) 0.1767(4) 0.2600(4)
H7A H 0.40218 0.13212 0.23755
H8A H 0.40653 0.17442 0.30871
C4A C 0.4281(4) 0.2354(4) 0.2229(4)
H9A H 0.41540 0.23509 0.17341
H10A H 0.47865 0.22900 0.22644
N2A N 0.3168(3) 0.1903(3) 0.2565(3)
H11A H 0.29426 0.15876 0.28297
H12A H 0.30235 0.18466 0.21214
Ag1A Ag 0.46310(3) 0.33305(3) 0.36879(3)
S1B S 0.36782(9) 0.47897(9) 0.50492(9)
C1B C 0.4364(4) 0.4449(4) 0.6250(4)
H1B H 0.43868 0.44809 0.67589
H2B H 0.43758 0.39548 0.61203
C2B C 0.3697(4) 0.4772(4) 0.5995(4)
H3B H 0.36588 0.52488 0.61750
H4B H 0.32994 0.45039 0.61687
N1B N 0.4953(3) 0.4805(3) 0.5946(3)
H5B H 0.53463 0.45740 0.60575
H6B H 0.49825 0.52365 0.61284
S2B S 0.31756(9) 0.26149(9) 0.40364(9)
C3B C 0.1767(4) 0.2600(4) 0.3913(4)
H7B H 0.13212 0.23755 0.40218
H8B H 0.17442 0.30871 0.40653
C4B C 0.2354(4) 0.2229(4) 0.4281(4)
H9B H 0.23509 0.17341 0.41540
H10B H 0.22900 0.22644 0.47865
N2B N 0.1903(3) 0.2565(3) 0.3168(3)
H11B H 0.15876 0.28297 0.29426
H12B H 0.18466 0.21214 0.30235
Ag1B Ag 0.33305(3) 0.36879(3) 0.46310(3)
S3A S 0.75961(10) 0.88475(9) 0.76167(9)
C5A C 0.7827(4) 0.8368(4) 0.6313(4)
H13A H 0.77327 0.84037 0.58124
H14A H 0.83291 0.84258 0.63846
C6A C 0.7448(4) 0.8928(4) 0.6686(4)
H15A H 0.69482 0.88929 0.65872
H16A H 0.76117 0.93836 0.65239
N3A N 0.7612(3) 0.7682(3) 0.6563(3)
H17A H 0.78981 0.73539 0.63860
H18A H 0.71761 0.75900 0.64157
S4A S 0.98047(9) 0.95132(9) 0.84428(9)
C7A C 0.9695(4) 1.0905(4) 0.8760(4)
H19A H 0.98740 1.13785 0.86897
H20A H 0.91920 1.09101 0.86729
C8A C 1.0046(4) 1.0412(4) 0.8259(4)
H21A H 1.05530 1.04635 0.82961
H22A H 0.99100 1.05305 0.77806
N4A N 0.9829(3) 1.0684(3) 0.9478(3)
H23A H 0.95593 1.09352 0.97685
H24A H 1.02777 1.07742 0.95847
Ag2A Ag 0.87088(3) 0.92766(3) 0.79292(3)
S3B S 0.88475(10) 0.76167(9) 0.75961(9)
C5B C 0.8368(4) 0.6313(4) 0.7827(4)
H13B H 0.84037 0.58124 0.77327
H14B H 0.84258 0.63846 0.83291
C6B C 0.8928(4) 0.6686(4) 0.7448(4)
H15B H 0.88929 0.65872 0.69482
H16B H 0.93836 0.65239 0.76117
N3B N 0.7682(3) 0.6563(3) 0.7612(3)
H17B H 0.73539 0.63860 0.78981
H18B H 0.75900 0.64157 0.71761
S4B S 0.95132(9) 0.84428(9) 0.98047(9)
C7B C 1.0905(4) 0.8760(4) 0.9695(4)
H19B H 1.13785 0.86897 0.98740
H20B H 1.09101 0.86729 0.91920
C8B C 1.0412(4) 0.8259(4) 1.0046(4)
H21B H 1.04635 0.82961 1.05530
H22B H 1.05305 0.77806 0.99100
N4B N 1.0684(3) 0.9478(3) 0.9829(3)
H23B H 1.09352 0.97685 0.95593
H24B H 1.07742 0.95847 1.02777
Ag2B Ag 0.92766(3) 0.79292(3) 0.87088(3)
#END

data_CSD_CIF_EWEGEV
_audit_creation_date 2021-06-24
_audit_creation_method CSD-ConQuest-V1
_database_code_CSD EWEGEV
_database_code_depnum_ccdc_archive 'CCDC 2043349'
_chemical_formula_sum 'C36 H98 Ag6 N12 O22 Rh4 S12'
_chemical_formula_moiety
;
2(C12 H36 Ag3 N6 Rh2 S6 3+),3(C4 H4 O5 2-),7(H2 O1)
;
_journal_coden_Cambridge 1220
_journal_volume 32
_journal_year 2021
_journal_page_first 8358
_journal_name_full 'Chem.-Eur.J. '
loop_
_publ_author_name
"M.Uno"
"T.Kojima"
"N.Kuwamura"
"N.Yoshinari"
"T.Konno"
_chemical_name_systematic
;
bis(hexakis(\m-2-aminoethane-1-thiolato)-di-rhodium-tri-silver) 
tris(2-hydroxybutanedioate) heptahydrate
;
_cell_volume   7279.952
_exptl_crystal_colour 'yellow'
_exptl_crystal_density_diffrn 2.263
_exptl_special_details
;
Absolute configuration

;
_exptl_crystal_description 'block'
_diffrn_ambient_temperature 100
_diffrn_radiation_probe x-ray
_diffrn_source synchrotron
_diffrn_special_details
;
twin

;
#These two values have been output from a single CSD field.
_refine_ls_R_factor_gt 0.0327
_refine_ls_wR_factor_gt 0.0327
loop_
_citation_database_id_CSD
_citation_special_details
EWEGAR "is a stereoisomer of this entry"
_symmetry_cell_setting cubic
_symmetry_space_group_name_H-M 'P 21 3'
_symmetry_Int_Tables_number 198
loop_
_symmetry_equiv_pos_site_id
_symmetry_equiv_pos_as_xyz
1 x,y,z
2 y,z,x
3 z,x,y
4 1/2+x,1/2-y,-z
5 1/2+y,1/2-z,-x
6 1/2+z,1/2-x,-y
7 -y,1/2+z,1/2-x
8 -z,1/2+x,1/2-y
9 1/2-z,-x,1/2+y
10 1/2-x,-y,1/2+z
11 1/2-y,-z,1/2+x
12 -x,1/2+y,1/2-z
_cell_length_a 19.381(2)
_cell_length_b 19.381(2)
_cell_length_c 19.381(2)
_cell_angle_alpha 90
_cell_angle_beta 90
_cell_angle_gamma 90
_cell_formula_units_Z 4
loop_
_atom_type_symbol
_atom_type_radius_bond
C 0.68
H 0.23
Ag 1.45
N 0.68
O 0.68
Rh 1.42
S 1.02
loop_
_atom_site_label
_atom_site_type_symbol
_atom_site_fract_x
_atom_site_fract_y
_atom_site_fract_z
S1 S 0.52123(14) 0.49465(14) 0.63202(14)
C1 C 0.5561(5) 0.3759(5) 0.5625(5)
H1 H 0.60533 0.38948 0.56126
H2 H 0.55354 0.32492 0.56000
C2 C 0.5233(5) 0.4009(5) 0.6294(5)
H3 H 0.55005 0.38327 0.66918
H4 H 0.47572 0.38264 0.63293
N1 N 0.5201(4) 0.4059(5) 0.5047(5)
H5 H 0.47702 0.38740 0.50210
H6 H 0.54283 0.39494 0.46506
S2 S 0.73830(14) 0.59621(13) 0.68208(14)
C3 C 0.7400(5) 0.6088(5) 0.8225(5)
H7 H 0.69147 0.59322 0.82546
H8 H 0.76300 0.59833 0.86689
C4 C 0.7765(5) 0.5716(5) 0.7640(5)
H9 H 0.77243 0.52112 0.77050
H10 H 0.82616 0.58374 0.76421
N2 N 0.7424(5) 0.6830(4) 0.8093(4)
H11 H 0.78637 0.69815 0.81560
H12 H 0.71511 0.70488 0.84062
Rh1 Rh 0.51216(4) 0.51216(4) 0.51216(4)
Rh2 Rh 0.71011(4) 0.71011(4) 0.71011(4)
Ag1 Ag 0.63115(4) 0.53672(4) 0.66675(4)
S3 S 0.23855(14) 0.24022(13) 0.11536(13)
C5 C 0.3682(6) 0.2172(5) 0.1632(5)
H13 H 0.36103 0.16691 0.15748
H14 H 0.41832 0.22642 0.15992
C6 C 0.3316(5) 0.2547(5) 0.1067(5)
H15 H 0.34767 0.23769 0.06125
H16 H 0.34177 0.30467 0.10957
N3 N 0.3431(4) 0.2386(4) 0.2313(4)
H17 H 0.35785 0.28218 0.24043
H18 H 0.36080 0.21004 0.26415
S4 S 0.15566(14) 0.01970(14) 0.04864(13)
C7 C 0.1250(5) 0.0309(6) -0.0904(5)
H19 H 0.13362 0.08121 -0.09037
H20 H 0.13265 0.01328 -0.13770
C8 C 0.1743(5) -0.0047(5) -0.0403(5)
H21 H 0.22236 0.00824 -0.05179
H22 H 0.16993 -0.05534 -0.04534
N4 N 0.0523(4) 0.0166(5) -0.0685(4)
H23 H 0.04208 -0.02831 -0.07729
H24 H 0.02311 0.04333 -0.09374
Rh3 Rh 0.23554(4) 0.23554(4) 0.23554(4)
Rh4 Rh 0.03662(4) 0.03662(4) 0.03662(4)
Ag2 Ag 0.20711(4) 0.12901(4) 0.07240(4)
C9 C 0.5735(6) 0.3283(6) 0.3304(6)
C10 C 0.5031(7) 0.3416(7) 0.3006(7)
H25 H 0.47804 0.29691 0.29470
C11 C 0.5074(7) 0.3770(9) 0.2347(7)
H26 H 0.53373 0.34768 0.20221
H27 H 0.53375 0.42028 0.24120
C12 C 0.4357(6) 0.3950(6) 0.2012(6)
O1 O 0.5942(5) 0.3584(5) 0.3838(5)
O2 O 0.6090(4) 0.2838(4) 0.3010(4)
O3 O 0.4664(4) 0.3850(5) 0.3510(5)
H28 H 0.46386 0.36414 0.38892
O4 O 0.4371(4) 0.4200(5) 0.1405(4)
O5 O 0.3820(4) 0.3806(4) 0.2328(5)
O6 O 0.2949(5) 0.4340(6) 0.1086(6)
O7 O 0.6826(6) 0.2798(7) 0.4647(5)
O8 O 0.4220(6) 0.5780(6) 0.0780(6)
S1A S 0.49465(14) 0.63202(14) 0.52123(14)
C1A C 0.3759(5) 0.5625(5) 0.5561(5)
H1A H 0.38948 0.56126 0.60533
H2A H 0.32492 0.56000 0.55354
C2A C 0.4009(5) 0.6294(5) 0.5233(5)
H3A H 0.38327 0.66918 0.55005
H4A H 0.38264 0.63293 0.47572
N1A N 0.4059(4) 0.5047(5) 0.5201(5)
H5A H 0.38740 0.50210 0.47702
H6A H 0.39494 0.46506 0.54283
S2A S 0.59621(14) 0.68208(13) 0.73830(14)
C3A C 0.6088(5) 0.8225(5) 0.7400(5)
H7A H 0.59322 0.82546 0.69147
H8A H 0.59833 0.86689 0.76300
C4A C 0.5716(5) 0.7640(5) 0.7765(5)
H9A H 0.52112 0.77050 0.77243
H10A H 0.58374 0.76421 0.82616
N2A N 0.6830(5) 0.8093(4) 0.7424(4)
H11A H 0.69815 0.81560 0.78637
H12A H 0.70488 0.84062 0.71511
Ag1A Ag 0.53672(4) 0.66675(4) 0.63115(4)
S1B S 0.63202(14) 0.52123(14) 0.49465(14)
C1B C 0.5625(5) 0.5561(5) 0.3759(5)
H1B H 0.56126 0.60533 0.38948
H2B H 0.56000 0.55354 0.32492
C2B C 0.6294(5) 0.5233(5) 0.4009(5)
H3B H 0.66918 0.55005 0.38327
H4B H 0.63293 0.47572 0.38264
N1B N 0.5047(4) 0.5201(5) 0.4059(5)
H5B H 0.50210 0.47702 0.38740
H6B H 0.46506 0.54283 0.39494
S2B S 0.68208(14) 0.73830(13) 0.59621(14)
C3B C 0.8225(5) 0.7400(5) 0.6088(5)
H7B H 0.82546 0.69147 0.59322
H8B H 0.86689 0.76300 0.59833
C4B C 0.7640(5) 0.7765(5) 0.5716(5)
H9B H 0.77050 0.77243 0.52112
H10B H 0.76421 0.82616 0.58374
N2B N 0.8093(5) 0.7424(4) 0.6830(4)
H11B H 0.81560 0.78637 0.69815
H12B H 0.84062 0.71511 0.70488
Ag1B Ag 0.66675(4) 0.63115(4) 0.53672(4)
S3A S 0.24022(14) 0.11536(13) 0.23855(13)
C5A C 0.2172(6) 0.1632(5) 0.3682(5)
H13A H 0.16691 0.15748 0.36103
H14A H 0.22642 0.15992 0.41832
C6A C 0.2547(5) 0.1067(5) 0.3316(5)
H15A H 0.23769 0.06125 0.34767
H16A H 0.30467 0.10957 0.34177
N3A N 0.2386(4) 0.2313(4) 0.3431(4)
H17A H 0.28218 0.24043 0.35785
H18A H 0.21004 0.26415 0.36080
S4A S 0.01970(14) 0.04864(14) 0.15566(13)
C7A C 0.0309(5) -0.0904(6) 0.1250(5)
H19A H 0.08121 -0.09037 0.13362
H20A H 0.01328 -0.13770 0.13265
C8A C -0.0047(5) -0.0403(5) 0.1743(5)
H21A H 0.00824 -0.05179 0.22236
H22A H -0.05534 -0.04534 0.16993
N4A N 0.0166(4) -0.0685(5) 0.0523(4)
H23A H -0.02831 -0.07729 0.04208
H24A H 0.04333 -0.09374 0.02311
Ag2A Ag 0.12901(4) 0.07240(4) 0.20711(4)
S3B S 0.11536(14) 0.23855(13) 0.24022(13)
C5B C 0.1632(6) 0.3682(5) 0.2172(5)
H13B H 0.15748 0.36103 0.16691
H14B H 0.15992 0.41832 0.22642
C6B C 0.1067(5) 0.3316(5) 0.2547(5)
H15B H 0.06125 0.34767 0.23769
H16B H 0.10957 0.34177 0.30467
N3B N 0.2313(4) 0.3431(4) 0.2386(4)
H17B H 0.24043 0.35785 0.28218
H18B H 0.26415 0.36080 0.21004
S4B S 0.04864(14) 0.15566(14) 0.01970(13)
C7B C -0.0904(5) 0.1250(6) 0.0309(5)
H19B H -0.09037 0.13362 0.08121
H20B H -0.13770 0.13265 0.01328
C8B C -0.0403(5) 0.1743(5) -0.0047(5)
H21B H -0.05179 0.22236 0.00824
H22B H -0.04534 0.16993 -0.05534
N4B N -0.0685(4) 0.0523(5) 0.0166(4)
H23B H -0.07729 0.04208 -0.02831
H24B H -0.09374 0.02311 0.04333
Ag2B Ag 0.07240(4) 0.20711(4) 0.12901(4)
#END

data_CSD_CIF_FADKOK
_audit_creation_date 1987-06-30
_audit_creation_method CSD-ConQuest-V1
_database_code_CSD FADKOK
_chemical_formula_sum 'C9 H27 As3 Cl6 In2 O3'
_chemical_formula_moiety
;
C9 H27 As3 Cl6 In2 O3
;
_journal_coden_Cambridge 155
_journal_volume 114
_journal_year 1986
_journal_page_first L29
_journal_name_full 'Inorg.Chim.Acta '
loop_
_publ_author_name
"A.G.Groves"
"W.T.Robinson"
"C.J.Wilkins"
_chemical_name_systematic
;
(\m~3~-Oxo)-bis(trimethylarsine-oxo)-trimethylarsine-bis(trichloro-indium)
;
_cell_volume   2654.440
_exptl_crystal_density_diffrn 2.128
_diffrn_ambient_temperature ?
_diffrn_special_details
;
The study was carried out at room temperature,in the range 283-303K

;
#These two values have been output from a single CSD field.
_refine_ls_R_factor_gt 0.0259
_refine_ls_wR_factor_gt 0.0259
_symmetry_cell_setting cubic
_symmetry_space_group_name_H-M 'P 21 3'
_symmetry_Int_Tables_number 198
loop_
_symmetry_equiv_pos_site_id
_symmetry_equiv_pos_as_xyz
1 x,y,z
2 z,x,y
3 y,z,x
4 1/2+x,1/2-y,-z
5 1/2+z,1/2-x,-y
6 1/2+y,1/2-z,-x
7 -x,1/2+y,1/2-z
8 -z,1/2+x,1/2-y
9 -y,1/2+z,1/2-x
10 1/2-x,-y,1/2+z
11 1/2-z,-x,1/2+y
12 1/2-y,-z,1/2+x
_cell_length_a 13.846(3)
_cell_length_b 13.846(3)
_cell_length_c 13.846(3)
_cell_angle_alpha 90
_cell_angle_beta 90
_cell_angle_gamma 90
_cell_formula_units_Z 4
loop_
_atom_type_symbol
_atom_type_radius_bond
C 0.68
As 1.21
Cl 0.99
In 1.43
O 0.68
loop_
_atom_site_label
_atom_site_type_symbol
_atom_site_fract_x
_atom_site_fract_y
_atom_site_fract_z
In1 In 0.4632(1) 0.4632(1) 0.4632(1)
In2 In 0.6002(1) 0.6002(1) 0.6002(1)
Cl1 Cl 0.4535(2) 0.2907(2) 0.4935(3)
Cl2 Cl 0.6887(2) 0.5241(2) 0.7302(2)
O1 O 0.6190(4) 0.4702(4) 0.5065(4)
As1 As 0.7066(1) 0.3834(1) 0.5123(1)
C1 C 0.7013(9) 0.3114(8) 0.3969(9)
C2 C 0.8291(7) 0.4441(8) 0.5216(9)
C3 C 0.6880(9) 0.2967(8) 0.6182(9)
Cl1A Cl 0.4935(2) 0.4535(2) 0.2907(3)
Cl1B Cl 0.2907(2) 0.4935(2) 0.4535(3)
O1A O 0.5065(4) 0.6190(4) 0.4702(4)
O1B O 0.4702(4) 0.5065(4) 0.6190(4)
Cl2A Cl 0.7302(2) 0.6887(2) 0.5241(2)
Cl2B Cl 0.5241(2) 0.7302(2) 0.6887(2)
As1A As 0.5123(1) 0.7066(1) 0.3834(1)
As1B As 0.3834(1) 0.5123(1) 0.7066(1)
C1A C 0.3969(9) 0.7013(8) 0.3114(9)
C2A C 0.5216(7) 0.8291(8) 0.4441(9)
C3A C 0.6182(9) 0.6880(8) 0.2967(9)
C1B C 0.3114(9) 0.3969(8) 0.7013(9)
C2B C 0.4441(7) 0.5216(8) 0.8291(9)
C3B C 0.2967(9) 0.6182(8) 0.6880(9)
#END

data_CSD_CIF_FAQCAC
_audit_creation_date 2005-04-18
_audit_creation_method CSD-ConQuest-V1
_database_code_CSD FAQCAC
_database_code_depnum_ccdc_archive 'CCDC 247060'
_chemical_formula_sum 'C5 H18 N4 O4 S1'
_chemical_formula_moiety
;
C4 H12 N1 1+,C1 H6 N3 1+,O4 S1 2-
;
_journal_coden_Cambridge 179
_journal_volume 43
_journal_year 2004
_journal_page_first 6157
_journal_name_full 'Angew.Chem.,Int.Ed. '
loop_
_publ_author_name
"B.F.Abrahams"
"M.G.Haywood"
"T.A.Hudson"
"R.Robson"
_chemical_name_systematic
;
Tetramethylammonium guanidinium sulfate
;
_cell_volume   1185.228
_exptl_crystal_colour 'colorless'
_exptl_crystal_density_diffrn 1.291
_exptl_special_details
;
isostructural with the chromate and molybdate analogues

;
_exptl_crystal_description 'tetrahedron'
_diffrn_ambient_temperature 293
#These two values have been output from a single CSD field.
_refine_ls_R_factor_gt 0.0476
_refine_ls_wR_factor_gt 0.0476
_symmetry_cell_setting cubic
_symmetry_space_group_name_H-M 'P 21 3'
_symmetry_Int_Tables_number 198
loop_
_symmetry_equiv_pos_site_id
_symmetry_equiv_pos_as_xyz
1 x,y,z
2 1/2-x,-y,1/2+z
3 1/2+x,1/2-y,-z
4 -x,1/2+y,1/2-z
5 y,z,x
6 1/2-y,-z,1/2+x
7 1/2+y,1/2-z,-x
8 -y,1/2+z,1/2-x
9 z,x,y
10 -z,1/2+x,1/2-y
11 1/2-z,-x,1/2+y
12 1/2+z,1/2-x,-y
_cell_length_a 10.5828(6)
_cell_length_b 10.5828(6)
_cell_length_c 10.5828(6)
_cell_angle_alpha 90
_cell_angle_beta 90
_cell_angle_gamma 90
_cell_formula_units_Z 4
loop_
_atom_type_symbol
_atom_type_radius_bond
C 0.68
H 0.23
N 0.68
O 0.68
S 1.02
loop_
_atom_site_label
_atom_site_type_symbol
_atom_site_fract_x
_atom_site_fract_y
_atom_site_fract_z
C1 C 0.6370(3) 0.6370(3) 0.6370(3)
N1 N 0.5342(2) 0.6893(3) 0.6847(2)
H1 H 0.49820 0.65640 0.74970
H2 H 0.50310 0.75630 0.65070
C2 C 0.6736(4) 0.8264(4) 1.1736(4)
H3 H 0.65770 0.73920 1.15450
C3 C 0.6285(4) 0.8862(4) 0.9580(4)
H4 H 0.62250 0.79800 0.93780
H5 H 0.71340 0.91480 0.94390
H6 H 0.57160 0.93320 0.90540
N2 N 0.5941(3) 0.9059(3) 1.0941(3)
O1 O 0.4641(2) 0.6061(2) 0.9250(2)
O2 O 0.5851(2) 0.4149(2) 0.9149(2)
S1 S 0.50404(7) 0.49596(7) 0.99596(7)
N1D N 0.6893(2) 0.6847(3) 0.5342(2)
N1H N 0.6847(2) 0.5342(3) 0.6893(2)
H1D H 0.65640 0.74970 0.49820
H1H H 0.74970 0.49820 0.65640
H2D H 0.75630 0.65070 0.50310
H2H H 0.65070 0.50310 0.75630
H3E H 0.76080 0.84550 1.15770
H3K H 0.65450 0.84230 1.26080
C3K C 0.4580(4) 0.8715(4) 1.1138(4)
C3E C 0.6138(4) 1.0420(4) 1.1285(4)
H4K H 0.43780 0.87750 1.20200
H4E H 0.70200 1.06220 1.12250
H5K H 0.44390 0.78660 1.08520
H5E H 0.58520 1.05610 1.21340
H6K H 0.40540 0.92840 1.06680
H6E H 0.56680 1.09460 1.07160
O1J O 0.5750(2) 0.5359(2) 1.1061(2)
O1G O 0.3939(2) 0.4250(2) 1.0359(2)
#END

data_CSD_CIF_FAQCIK
_audit_creation_date 2005-04-18
_audit_creation_method CSD-ConQuest-V1
_database_code_CSD FAQCIK
_database_code_depnum_ccdc_archive 'CCDC 247062'
_chemical_formula_sum 'C5 H18 Mo1 N4 O4'
_chemical_formula_moiety
;
C4 H12 N1 1+,C1 H6 N3 1+,Mo1 O4 2-
;
_journal_coden_Cambridge 179
_journal_volume 43
_journal_year 2004
_journal_page_first 6157
_journal_name_full 'Angew.Chem.,Int.Ed. '
loop_
_publ_author_name
"B.F.Abrahams"
"M.G.Haywood"
"T.A.Hudson"
"R.Robson"
_chemical_name_systematic
;
Tetramethylammonium guanidinium molybdate(vi)
;
_cell_volume   1287.984
_exptl_crystal_colour 'colorless'
_exptl_crystal_density_diffrn 1.517
_exptl_special_details
;
isostructural with the sulfate and chromate analogues

;
_exptl_crystal_description 'tetrahedron'
_diffrn_ambient_temperature 130
#These two values have been output from a single CSD field.
_refine_ls_R_factor_gt 0.039
_refine_ls_wR_factor_gt 0.039
_symmetry_cell_setting cubic
_symmetry_space_group_name_H-M 'P 21 3'
_symmetry_Int_Tables_number 198
loop_
_symmetry_equiv_pos_site_id
_symmetry_equiv_pos_as_xyz
1 x,y,z
2 1/2-x,-y,1/2+z
3 -x,1/2+y,1/2-z
4 1/2+x,1/2-y,-z
5 z,x,y
6 1/2+z,1/2-x,-y
7 1/2-z,-x,1/2+y
8 -z,1/2+x,1/2-y
9 y,z,x
10 -y,1/2+z,1/2-x
11 1/2+y,1/2-z,-x
12 1/2-y,-z,1/2+x
_cell_length_a 10.8802(4)
_cell_length_b 10.8802(4)
_cell_length_c 10.8802(4)
_cell_angle_alpha 90
_cell_angle_beta 90
_cell_angle_gamma 90
_cell_formula_units_Z 4
loop_
_atom_type_symbol
_atom_type_radius_bond
C 0.68
H 0.23
Mo 1.47
N 0.68
O 0.68
loop_
_atom_site_label
_atom_site_type_symbol
_atom_site_fract_x
_atom_site_fract_y
_atom_site_fract_z
Mo1 Mo 0.00204(3) 0.00204(3) 0.00204(3)
O1 O -0.0924(2) -0.0924(2) -0.0924(2)
O2 O -0.0800(3) 0.0429(3) 0.1344(3)
N1 N -0.3155(3) -0.0396(3) 0.1935(3)
H1 H -0.25160 -0.00170 0.16170
H2 H -0.35050 -0.01050 0.26040
C1 C -0.3594(4) -0.1406(4) 0.1406(4)
N2 N 0.4193(4) 0.0807(4) 0.9193(4)
C2 C 0.3407(4) 0.1593(4) 0.8407(4)
H3 H 0.35140 0.13580 0.75440
H4 H 0.36420 0.24560 0.85140
H5 H 0.25440 0.14860 0.86420
C3 C 0.3872(4) 0.1000(5) 1.0514(4)
H6 H 0.44160 0.05030 1.10310
H7 H 0.30160 0.07550 1.06540
H8 H 0.39720 0.18710 1.07230
O2D O 0.1344(3) -0.0800(3) 0.0429(3)
O2H O 0.0429(3) 0.1344(3) -0.0800(3)
N1K N -0.4604(3) -0.1935(3) 0.1845(3)
N1E N -0.3065(3) -0.1845(3) 0.0396(3)
H1K H -0.49830 -0.16170 0.24840
H1E H -0.33830 -0.24840 0.00170
H2K H -0.48950 -0.26040 0.14950
H2E H -0.23960 -0.14950 0.01050
C3E C 0.5514(4) 0.1128(5) 0.9000(4)
C3K C 0.4000(4) -0.0514(5) 0.8872(4)
H6E H 0.60310 0.05840 0.94970
H6K H 0.44970 -0.10310 0.94160
H7E H 0.56540 0.19840 0.92450
H7K H 0.42450 -0.06540 0.80160
H8E H 0.57230 0.10280 0.81290
H8K H 0.31290 -0.07230 0.89720
#END

data_CSD_CIF_FEGYEV
_audit_creation_date 1987-11-26
_audit_creation_method CSD-ConQuest-V1
_database_code_CSD FEGYEV
_database_code_depnum_ccdc_archive 'CCDC 1154066'
_chemical_formula_sum 'C8 H13 Br4 N1'
_chemical_formula_moiety
;
C7 H13 N1,C1 Br4
;
_journal_coden_Cambridge 35
_journal_volume 52
_journal_year 1987
_journal_page_first 1451
_journal_name_full 'J.Org.Chem. '
loop_
_publ_author_name
"S.C.Blackstock"
"J.P.Lorand"
"J.K.Kochi"
_chemical_name_systematic
;
Quinuclidine carbon tetrabromide
;
_cell_volume   1297.169
_exptl_crystal_colour 'slightly yellow'
_exptl_crystal_density_diffrn 2.27
_exptl_special_details
;
Absolute configuration

;
_diffrn_ambient_temperature ?
_diffrn_special_details
;
The study was carried out at room temperature,in the range 283-303K

;
#These two values have been output from a single CSD field.
_refine_ls_R_factor_gt 0.048
_refine_ls_wR_factor_gt 0.048
_symmetry_cell_setting cubic
_symmetry_space_group_name_H-M 'P 21 3'
_symmetry_Int_Tables_number 198
loop_
_symmetry_equiv_pos_site_id
_symmetry_equiv_pos_as_xyz
1 x,y,z
2 z,x,y
3 y,z,x
4 1/2+x,1/2-y,-z
5 1/2+z,1/2-x,-y
6 1/2+y,1/2-z,-x
7 -x,1/2+y,1/2-z
8 -z,1/2+x,1/2-y
9 -y,1/2+z,1/2-x
10 1/2-x,-y,1/2+z
11 1/2-z,-x,1/2+y
12 1/2-y,-z,1/2+x
_cell_length_a 10.906(8)
_cell_length_b 10.906(8)
_cell_length_c 10.906(8)
_cell_angle_alpha 90
_cell_angle_beta 90
_cell_angle_gamma 90
_cell_formula_units_Z 4
loop_
_atom_type_symbol
_atom_type_radius_bond
C 0.68
H 0.23
Br 1.21
N 0.68
loop_
_atom_site_label
_atom_site_type_symbol
_atom_site_fract_x
_atom_site_fract_y
_atom_site_fract_z
Br1 Br 0.2040(3) 0.20400 0.20400
Br2 Br 0.0726(3) -0.0549(3) 0.1811(3)
C1 C 0.085(2) 0.08500 0.08500
N1 N 0.338(2) 0.33800 0.33800
C2 C 0.477(3) 0.47700 0.47700
C3 C 0.281(3) 0.351(3) 0.465(3)
C4 C 0.366(3) 0.433(3) 0.539(3)
H1 H 0.52910 0.52910 0.52910
H2 H 0.27380 0.26810 0.50260
H3 H 0.19820 0.38870 0.45630
H4 H 0.39030 0.38440 0.61420
H5 H 0.31560 0.50520 0.56680
Br2A Br 0.1811(3) 0.0726(3) -0.0549(3)
Br2B Br -0.0549(3) 0.1811(3) 0.0726(3)
C3A C 0.465(3) 0.281(3) 0.351(3)
C3B C 0.351(3) 0.465(3) 0.281(3)
C4A C 0.539(3) 0.366(3) 0.433(3)
C4B C 0.433(3) 0.539(3) 0.366(3)
H2A H 0.50260 0.27380 0.26810
H3A H 0.45630 0.19820 0.38870
H2B H 0.26810 0.50260 0.27380
H3B H 0.38870 0.45630 0.19820
H4A H 0.61420 0.39030 0.38440
H5A H 0.56680 0.31560 0.50520
H4B H 0.38440 0.61420 0.39030
H5B H 0.50520 0.56680 0.31560
#END

data_CSD_CIF_FEMYAY
_audit_creation_date 2005-05-11
_audit_creation_method CSD-ConQuest-V1
_database_code_CSD FEMYAY
_database_code_depnum_ccdc_archive 'CCDC 236926'
_chemical_formula_sum 'C40 H63 F3 Mo1 N4 O3 S1 Si1'
_chemical_formula_moiety
;
C39 H63 Mo1 N4 Si1 1+,C1 F3 O3 S1 1-
;
_journal_coden_Cambridge 580
_journal_volume 23
_journal_year 2004
_journal_page_first 2751
_journal_name_full 'Polyhedron '
loop_
_publ_author_name
"E.L.Sceats"
"J.S.Figueroa"
"C.C.Cummins"
"N.M.Loening"
"P.Van der Wel"
"R.G.Griffin"
_chemical_name_systematic
;
tris(t-Butyl(3,5-dimethylphenyl)amido)-(trimethylsilyl)nitrilo-molybdenum(vi) 
trifluoromethanesulfonate
;
_cell_volume   4539.499
_exptl_crystal_colour 'orange'
_exptl_crystal_density_diffrn 1.26
_exptl_crystal_description 'block'
_diffrn_ambient_temperature 193
#These two values have been output from a single CSD field.
_refine_ls_R_factor_gt 0.0269
_refine_ls_wR_factor_gt 0.0269
_symmetry_cell_setting cubic
_symmetry_space_group_name_H-M 'P 21 3'
_symmetry_Int_Tables_number 198
loop_
_symmetry_equiv_pos_site_id
_symmetry_equiv_pos_as_xyz
1 x,y,z
2 1/2-x,-y,1/2+z
3 -x,1/2+y,1/2-z
4 1/2+x,1/2-y,-z
5 z,x,y
6 1/2+z,1/2-x,-y
7 1/2-z,-x,1/2+y
8 -z,1/2+x,1/2-y
9 y,z,x
10 -y,1/2+z,1/2-x
11 1/2+y,1/2-z,-x
12 1/2-y,-z,1/2+x
_cell_length_a 16.5578(5)
_cell_length_b 16.5578(5)
_cell_length_c 16.5578(5)
_cell_angle_alpha 90
_cell_angle_beta 90
_cell_angle_gamma 90
_cell_formula_units_Z 4
loop_
_atom_type_symbol
_atom_type_radius_bond
C 0.68
H 0.23
F 0.64
Mo 1.43
N 0.68
O 0.68
S 1.02
Si 1.20
loop_
_atom_site_label
_atom_site_type_symbol
_atom_site_fract_x
_atom_site_fract_y
_atom_site_fract_z
Mo1 Mo 0.60708(2) 0.89292(2) 1.10708(2)
N1 N 0.53344(19) 0.8235(2) 1.04851(19)
Si1 Si 0.72948(7) 0.77052(7) 1.22948(7)
N2 N 0.6669(2) 0.8331(2) 1.1669(2)
C1 C 0.4529(2) 0.8580(2) 1.0358(3)
C2 C 0.3942(3) 0.8503(2) 1.0940(3)
H1 H 0.40560 0.82190 1.14110
C3 C 0.3179(2) 0.8842(3) 1.0838(3)
C4 C 0.3023(3) 0.9253(3) 1.0117(3)
H2 H 0.25160 0.94780 1.00350
C5 C 0.3603(3) 0.9332(3) 0.9527(3)
C6 C 0.4365(3) 0.8995(2) 0.9650(3)
H3 H 0.47620 0.90480 0.92570
C7 C 0.5423(3) 0.7353(2) 1.0273(3)
C8 C 0.6305(2) 0.7111(3) 1.0229(3)
H4 H 0.65740 0.74350 0.98310
H5 H 0.63450 0.65520 1.00830
H6 H 0.65540 0.71940 1.07460
C9 C 0.4989(3) 0.6831(3) 1.0898(3)
H7 H 0.44320 0.69880 1.09280
H8 H 0.52390 0.69030 1.14170
H9 H 0.50250 0.62740 1.07430
C10 C 0.7518(3) 0.8276(3) 1.3227(3)
H10 H 0.78530 0.79540 1.35750
H11 H 0.70220 0.84020 1.35000
H12 H 0.77950 0.87670 1.30920
C11 C 0.5047(3) 0.7208(3) 0.9435(3)
H13 H 0.53100 0.75460 0.90450
H14 H 0.44820 0.73360 0.94520
H15 H 0.51150 0.66520 0.92860
C12 C 0.2543(3) 0.8759(4) 1.1493(3)
H16 H 0.20560 0.90250 1.13240
H17 H 0.27370 0.90030 1.19820
H18 H 0.24340 0.81980 1.15860
C13 C 0.3410(3) 0.9766(3) 0.8744(3)
H19 H 0.28630 0.99580 0.87590
H20 H 0.34740 0.94000 0.82990
H21 H 0.37700 1.02150 0.86780
F1 F 0.9332(3) 0.6526(3) 1.3433(3)
O1 O 1.0001(3) 0.4993(3) 1.3995(3)
S1 S 0.95503(6) 0.54497(6) 1.45503(6)
C14 C 0.8923(3) 0.6077(3) 1.3923(3)
N1E N 0.54851(19) 0.96656(20) 1.17650(19)
N1K N 0.67650(19) 0.95149(20) 1.03344(19)
C1E C 0.5358(2) 1.0471(2) 1.1420(3)
C1K C 0.6420(2) 0.9642(2) 0.9529(3)
C2E C 0.5940(3) 1.1058(2) 1.1497(3)
C2K C 0.6497(3) 0.9060(2) 0.8942(3)
H1E H 0.64110 1.09440 1.17810
H1K H 0.67810 0.85890 0.90560
C3E C 0.5838(2) 1.1821(3) 1.1158(3)
C3K C 0.6158(2) 0.9162(3) 0.8179(3)
C4E C 0.5117(3) 1.1977(3) 1.0747(3)
C4K C 0.5747(3) 0.9883(3) 0.8023(3)
H2E H 0.50350 1.24840 1.05220
H2K H 0.55220 0.99650 0.75160
C5E C 0.4527(3) 1.1397(3) 1.0668(3)
C5K C 0.5668(3) 1.0473(3) 0.8603(3)
C6E C 0.4650(3) 1.0635(2) 1.1005(3)
C6K C 0.6005(3) 1.0350(2) 0.9365(3)
H3E H 0.42570 1.02380 1.09520
H3K H 0.59520 1.07430 0.97620
C7E C 0.5273(3) 0.9577(2) 1.2647(3)
C7K C 0.7647(3) 0.9727(2) 1.0423(3)
C8E C 0.5229(2) 0.8695(3) 1.2889(3)
C8K C 0.7889(2) 0.9771(3) 1.1305(3)
H4E H 0.48310 0.84260 1.25650
H4K H 0.75650 1.01690 1.15740
H5E H 0.50830 0.86550 1.34480
H5K H 0.84480 0.99170 1.13450
H6E H 0.57460 0.84460 1.28060
H6K H 0.78060 0.92540 1.15540
C9E C 0.5898(3) 1.0011(3) 1.3169(3)
C9K C 0.8169(3) 0.9102(3) 0.9989(3)
H7E H 0.59280 1.05680 1.30120
H7K H 0.80120 0.90720 0.94320
H8E H 0.64170 0.97610 1.30970
H8K H 0.80970 0.85830 1.02390
H9E H 0.57430 0.99750 1.37260
H9K H 0.87260 0.92570 1.00250
C10E C 0.8227(3) 0.7482(3) 1.1724(3)
C10K C 0.6724(3) 0.6773(3) 1.2518(3)
H10E H 0.85750 0.71470 1.20460
H10K H 0.70460 0.64250 1.28530
H11E H 0.85000 0.79780 1.15980
H11K H 0.65980 0.65000 1.20220
H12E H 0.80920 0.72050 1.12330
H12K H 0.62330 0.69080 1.27950
C11E C 0.4435(3) 0.9953(3) 1.2792(3)
C11K C 0.7792(3) 1.0565(3) 1.0047(3)
H13E H 0.40450 0.96900 1.24540
H13K H 0.74540 1.09550 1.03100
H14E H 0.44520 1.05180 1.26640
H14K H 0.76640 1.05480 0.94820
H15E H 0.42860 0.98850 1.33480
H15K H 0.83480 1.07140 1.01150
C12E C 0.6493(3) 1.2457(4) 1.1241(3)
C12K C 0.6241(3) 0.8507(4) 0.7543(3)
H16E H 0.63240 1.29440 1.09750
H16K H 0.59750 0.86760 0.70560
H17E H 0.69820 1.22630 1.09970
H17K H 0.59970 0.80180 0.77370
H18E H 0.65860 1.25660 1.18020
H18K H 0.68020 0.84140 0.74340
C13E C 0.3744(3) 1.1590(3) 1.0234(3)
C13K C 0.5234(3) 1.1256(3) 0.8410(3)
H19E H 0.37590 1.21370 1.00420
H19K H 0.50420 1.12410 0.78630
H20E H 0.32990 1.15260 1.06000
H20K H 0.56000 1.17010 0.84740
H21E H 0.36780 1.12300 0.97850
H21K H 0.47850 1.13220 0.87700
F1K F 0.8474(3) 0.6567(3) 1.4332(3)
F1E F 0.8433(3) 0.5668(3) 1.3474(3)
O1K O 1.0007(3) 0.6005(3) 1.5001(3)
O1E O 0.8995(3) 0.4999(3) 1.5007(3)
#END

data_CSD_CIF_FESPIC
_audit_creation_date 1999-07-29
_audit_creation_method CSD-ConQuest-V1
_database_code_CSD FESPIC
_database_code_depnum_ccdc_archive 'CCDC 122103'
_database_code_depnum_ccdc_journal 186/1352
_chemical_formula_sum 'C18 H21 N5 O7 S1'
_chemical_formula_moiety
;
C18 H21 N4 3+,N1 O3 1-,O4 S1 2-
;
_journal_coden_Cambridge 186
_journal_year 1999
_journal_page_first 1271
_journal_name_full 'J.Chem.Soc.,Dalton Trans. '
loop_
_publ_author_name
"A.Hazell"
"J.McGinley"
"H.Toftlund"
_chemical_name_systematic
;
Amino-tris(2-methylpyridinium) nitrate sulfate
;
_chemical_name_common
;
Tripicolinium nitrate sulfate
;
_cell_volume   2014.746
_exptl_crystal_colour 'colorless'
_exptl_crystal_density_diffrn 1.488
_exptl_crystal_description 'plate'
_diffrn_ambient_temperature 120
#These two values have been output from a single CSD field.
_refine_ls_R_factor_gt 0.035
_refine_ls_wR_factor_gt 0.035
_symmetry_cell_setting cubic
_symmetry_space_group_name_H-M 'P 21 3'
_symmetry_Int_Tables_number 198
loop_
_symmetry_equiv_pos_site_id
_symmetry_equiv_pos_as_xyz
1 x,y,z
2 1/2-x,-y,1/2+z
3 -x,1/2+y,1/2-z
4 1/2+x,1/2-y,-z
5 z,x,y
6 1/2+z,1/2-x,-y
7 1/2-z,-x,1/2+y
8 -z,1/2+x,1/2-y
9 y,z,x
10 -y,1/2+z,1/2-x
11 1/2+y,1/2-z,-x
12 1/2-y,-z,1/2+x
_cell_length_a 12.6301(4)
_cell_length_b 12.6301(4)
_cell_length_c 12.6301(4)
_cell_angle_alpha 90
_cell_angle_beta 90
_cell_angle_gamma 90
_cell_formula_units_Z 4
loop_
_atom_type_symbol
_atom_type_radius_bond
C 0.68
H 0.23
N 0.68
O 0.68
S 1.02
loop_
_atom_site_label
_atom_site_type_symbol
_atom_site_fract_x
_atom_site_fract_y
_atom_site_fract_z
S1 S -0.29178(4) -0.29178 -0.29178
O1 O -0.2221(1) -0.22210 -0.22210
O2 O -0.3322(1) -0.3787(1) -0.2256(1)
O3 O 0.3399(1) 0.3292(1) 0.4547(2)
N1 N -0.0798(1) -0.07980 -0.07980
N2 N 0.3737(1) 0.37370 0.37370
N3 N -0.2846(1) -0.0308(1) -0.1494(1)
C1 C -0.3708(2) -0.0038(2) -0.2056(2)
C2 C -0.4220(2) 0.0898(2) -0.1840(2)
C3 C -0.3796(2) 0.1555(2) -0.1067(2)
C4 C -0.2894(2) 0.1259(2) -0.0512(2)
C5 C -0.2422(2) 0.0297(2) -0.0730(2)
C6 C -0.1487(2) -0.0125(2) -0.0135(2)
H1 H -0.266(2) -0.091(3) -0.161(2)
H2 H -0.389(2) -0.046(2) -0.263(2)
H3 H -0.487(2) 0.106(2) -0.227(2)
H4 H -0.415(2) 0.219(2) -0.093(2)
H5 H -0.270(2) 0.167(2) 0.009(2)
H6 H -0.109(2) 0.043(2) 0.024(2)
H7 H -0.179(2) -0.051(2) 0.044(2)
O2D O -0.2256(1) -0.3322(1) -0.3787(1)
O2H O -0.3787(1) -0.2256(1) -0.3322(1)
O3H O 0.3292(1) 0.4547(1) 0.3399(2)
O3D O 0.4547(1) 0.3399(1) 0.3292(2)
C6D C -0.0135(2) -0.1487(2) -0.0125(2)
C5D C -0.0730(2) -0.2422(2) 0.0297(2)
N3D N -0.1494(1) -0.2846(1) -0.0308(1)
C1D C -0.2056(2) -0.3708(2) -0.0038(2)
C2D C -0.1840(2) -0.4220(2) 0.0898(2)
C3D C -0.1067(2) -0.3796(2) 0.1555(2)
C4D C -0.0512(2) -0.2894(2) 0.1259(2)
H5D H 0.009(2) -0.270(2) 0.167(2)
H4D H -0.093(2) -0.415(2) 0.219(2)
H3D H -0.227(2) -0.487(2) 0.106(2)
H2D H -0.263(2) -0.389(2) -0.046(2)
H1D H -0.161(2) -0.266(3) -0.091(2)
H6D H 0.024(2) -0.109(2) 0.043(2)
H7D H 0.044(2) -0.179(2) -0.051(2)
C6H C -0.0125(2) -0.0135(2) -0.1487(2)
C5H C 0.0297(2) -0.0730(2) -0.2422(2)
N3H N -0.0308(1) -0.1494(1) -0.2846(1)
C1H C -0.0038(2) -0.2056(2) -0.3708(2)
C2H C 0.0898(2) -0.1840(2) -0.4220(2)
C3H C 0.1555(2) -0.1067(2) -0.3796(2)
C4H C 0.1259(2) -0.0512(2) -0.2894(2)
H5H H 0.167(2) 0.009(2) -0.270(2)
H4H H 0.219(2) -0.093(2) -0.415(2)
H3H H 0.106(2) -0.227(2) -0.487(2)
H2H H -0.046(2) -0.263(2) -0.389(2)
H1H H -0.091(2) -0.161(3) -0.266(2)
H6H H 0.043(2) 0.024(2) -0.109(2)
H7H H -0.051(2) 0.044(2) -0.179(2)
#END

data_CSD_CIF_FORKON
_audit_creation_date 2009-09-01
_audit_creation_method CSD-ConQuest-V1
_database_code_CSD FORKON
_database_code_depnum_ccdc_archive 'CCDC 704333'
_chemical_formula_sum 'C39 H60 N12 O1 Zn4'
_chemical_formula_moiety
;
C39 H60 N12 O1 Zn4
;
_journal_coden_Cambridge 222
_journal_year 2009
_journal_page_first 2012
_journal_name_full 'Dalton Trans. '
loop_
_publ_author_name
"Mei-Ling Cheng"
"Hong-Xi Li"
"Lei-Lei Liu"
"Hui-Hui Wang"
"Yong Zhang"
"Jian-Ping Lang"
_chemical_name_systematic
;
(\m~4~-Oxo)-tris(\m~2~-bis(3,5-dimethyl-1H-pyrazol-1-yl)methyl)-triethyl-tetra
-zinc
;
_cell_volume   4501.442
_exptl_crystal_colour 'colorless'
_exptl_crystal_density_diffrn 1.438
_exptl_special_details
;
air- and moisture-sensitive

;
_exptl_crystal_description 'block'
_diffrn_ambient_temperature 193
#These two values have been output from a single CSD field.
_refine_ls_R_factor_gt 0.0449
_refine_ls_wR_factor_gt 0.0449
_symmetry_cell_setting cubic
_symmetry_space_group_name_H-M 'P 21 3'
_symmetry_Int_Tables_number 198
loop_
_symmetry_equiv_pos_site_id
_symmetry_equiv_pos_as_xyz
1 x,y,z
2 1/2-x,-y,1/2+z
3 -x,1/2+y,1/2-z
4 1/2+x,1/2-y,-z
5 z,x,y
6 1/2+z,1/2-x,-y
7 1/2-z,-x,1/2+y
8 -z,1/2+x,1/2-y
9 y,z,x
10 -y,1/2+z,1/2-x
11 1/2+y,1/2-z,-x
12 1/2-y,-z,1/2+x
_cell_length_a 16.5114(19)
_cell_length_b 16.5114(19)
_cell_length_c 16.5114(19)
_cell_angle_alpha 90
_cell_angle_beta 90
_cell_angle_gamma 90
_cell_formula_units_Z 4
loop_
_atom_type_symbol
_atom_type_radius_bond
C 0.68
H 0.23
N 0.68
O 0.68
Zn 1.22
loop_
_atom_site_label
_atom_site_type_symbol
_atom_site_fract_x
_atom_site_fract_y
_atom_site_fract_z
Zn1 Zn 0.62604(5) 0.24794(5) 0.72225(5)
Zn2 Zn 0.80731(5) 0.19269(5) 0.69269(5)
O1 O 0.7379(3) 0.2621(3) 0.7621(3)
N1 N 0.6202(4) 0.1283(4) 0.6730(3)
N2 N 0.6710(3) 0.1088(3) 0.6101(3)
N3 N 0.6995(3) 0.2382(4) 0.5539(3)
N4 N 0.6481(4) 0.2846(4) 0.5997(4)
C1 C 0.5001(5) 0.0676(6) 0.7354(6)
H1 H 0.50120 0.01830 0.76620
H2 H 0.44900 0.07220 0.70810
H3 H 0.50720 0.11290 0.77110
C2 C 0.5658(5) 0.0665(5) 0.6754(5)
C3 C 0.5829(5) 0.0104(5) 0.6162(5)
H4 H 0.55570 -0.03800 0.60650
C4 C 0.6483(5) 0.0401(4) 0.5743(4)
C5 C 0.6931(7) 0.0043(6) 0.5033(6)
H5 H 0.69110 0.04130 0.45850
H6 H 0.66820 -0.04600 0.48810
H7 H 0.74850 -0.00520 0.51820
C6 C 0.7373(4) 0.1648(4) 0.5922(4)
H8 H 0.77260 0.13920 0.55190
C7 C 0.7656(5) 0.2339(5) 0.4182(5)
H9 H 0.82070 0.24570 0.43250
H10 H 0.75390 0.25610 0.36580
H11 H 0.75780 0.17630 0.41700
C8 C 0.7101(4) 0.2704(4) 0.4794(4)
C9 C 0.6612(4) 0.3381(5) 0.4774(5)
H12 H 0.65460 0.37340 0.43400
C10 C 0.6234(5) 0.3438(5) 0.5533(5)
C11 C 0.5656(5) 0.4061(6) 0.5828(5)
H13 H 0.55270 0.39580 0.63850
H14 H 0.51700 0.40400 0.55090
H15 H 0.58980 0.45870 0.57790
C12 C 0.5320(5) 0.2905(7) 0.7819(6)
H16 H 0.53090 0.26420 0.83440
H17 H 0.54150 0.34770 0.79150
C13 C 0.4468(5) 0.2819(7) 0.7441(9)
H18 H 0.44750 0.30250 0.68970
H19 H 0.40850 0.31210 0.77580
H20 H 0.43140 0.22580 0.74350
Zn1F Zn 0.77775(5) 0.37396(5) 0.74794(5)
Zn1I Zn 0.75206(5) 0.22225(5) 0.87396(5)
N1F N 0.8270(4) 0.3798(4) 0.6283(3)
N1I N 0.8717(4) 0.1730(4) 0.8798(3)
N2F N 0.8899(3) 0.3290(3) 0.6088(3)
N2I N 0.8912(3) 0.1101(3) 0.8290(3)
N3F N 0.9461(3) 0.3005(4) 0.7382(3)
N3I N 0.7618(3) 0.0539(4) 0.8005(3)
N4F N 0.9003(4) 0.3519(4) 0.7846(4)
N4I N 0.7154(4) 0.0997(4) 0.8519(4)
C1F C 0.7646(5) 0.4999(6) 0.5676(6)
C1I C 0.9324(5) 0.2354(6) 0.9999(6)
H1F H 0.73380 0.49880 0.51830
H1I H 0.98170 0.26620 0.99880
H2F H 0.79190 0.55100 0.57220
H2I H 0.92780 0.20810 1.05100
H3F H 0.72890 0.49280 0.61290
H3I H 0.88710 0.27110 0.99280
C2F C 0.8246(5) 0.4342(5) 0.5665(5)
C2I C 0.9335(5) 0.1754(5) 0.9342(5)
C3F C 0.8838(5) 0.4171(5) 0.5104(5)
C3I C 0.9896(5) 0.1162(5) 0.9171(5)
H4F H 0.89350 0.44430 0.46200
H4I H 1.03800 0.10650 0.94430
C4F C 0.9257(5) 0.3517(4) 0.5401(4)
C4I C 0.9599(5) 0.0743(4) 0.8517(4)
C5F C 0.9967(7) 0.3069(6) 0.5043(6)
C5I C 0.9957(7) 0.0033(6) 0.8069(6)
H5F H 1.04150 0.30890 0.54130
H5I H 0.95870 -0.04150 0.80890
H6F H 1.01190 0.33180 0.45400
H6I H 1.04600 -0.01190 0.83180
H7F H 0.98180 0.25150 0.49480
H7I H 1.00520 0.01820 0.75150
C6F C 0.9078(4) 0.2627(4) 0.6648(4)
C6I C 0.8352(4) 0.0922(4) 0.7627(4)
H8F H 0.94810 0.22740 0.63920
H8I H 0.86080 0.05190 0.72740
C7F C 1.0818(5) 0.2344(5) 0.7339(5)
C7I C 0.7661(5) -0.0818(5) 0.7344(5)
H9F H 1.06750 0.17930 0.74570
H9I H 0.75430 -0.06750 0.67930
H10F H 1.13420 0.24610 0.75610
H10I H 0.74390 -0.13420 0.74610
H11F H 1.08300 0.24220 0.67630
H11I H 0.82370 -0.08300 0.74220
C8F C 1.0206(4) 0.2899(4) 0.7704(4)
C8I C 0.7296(4) -0.0206(4) 0.7899(4)
C9F C 1.0226(4) 0.3388(5) 0.8381(5)
C9I C 0.6619(4) -0.0226(5) 0.8388(5)
H12F H 1.06600 0.34540 0.87340
H12I H 0.62660 -0.06600 0.84540
C10F C 0.9467(5) 0.3766(5) 0.8438(5)
C10I C 0.6562(5) 0.0533(5) 0.8766(5)
C11F C 0.9172(5) 0.4344(6) 0.9061(5)
C11I C 0.5939(5) 0.0828(6) 0.9344(5)
H13F H 0.86150 0.44730 0.89580
H13I H 0.60420 0.13850 0.94730
H14F H 0.94910 0.48300 0.90400
H14I H 0.59600 0.05090 0.98300
H15F H 0.92210 0.41020 0.95870
H15I H 0.54130 0.07790 0.91020
C12F C 0.7181(5) 0.4680(7) 0.7905(6)
C12I C 0.7095(5) 0.2819(7) 0.9680(6)
H16F H 0.66560 0.46910 0.76420
H16I H 0.73580 0.33440 0.96910
H17F H 0.70850 0.45850 0.84770
H17I H 0.65230 0.29150 0.95850
C13F C 0.7559(5) 0.5532(7) 0.7819(9)
C13I C 0.7181(5) 0.2441(7) 1.0532(9)
H18F H 0.81030 0.55250 0.80250
H18I H 0.69750 0.18970 1.05250
H19F H 0.72420 0.59150 0.81210
H19I H 0.68790 0.27580 1.09150
H20F H 0.75650 0.56860 0.72580
H20I H 0.77420 0.24350 1.06860
#END

data_CSD_CIF_FOZWAT
_audit_creation_date 2010-01-11
_audit_creation_method CSD-ConQuest-V1
_database_code_CSD FOZWAT
_database_code_depnum_ccdc_archive 'CCDC 755694'
_chemical_formula_sum 'C32 H40 O3'
_chemical_formula_moiety
;
C32 H38 O2,H2 O1
;
_journal_coden_Cambridge 917
_journal_volume 4
_journal_year 2008
_journal_page_first 25
_journal_name_full 'Beilstein J.Org.Chem. '
loop_
_publ_author_name
"Y.Alpagut"
"B.Goldfuss"
"J.-M.Neudorfl"
_chemical_name_systematic
;
(P)-2,2'-Biphenyl-2,2'-diylbis(4,6,6-trimethylbicyclo[3.1.1]hept-3-en-2-ol) 
monohydrate
;
_chemical_name_common
;
1,1'-Biphenyl-2,2'-diylbis(verbone) monohydrate
;
_cell_volume   8034.850
_exptl_crystal_colour 'colorless'
_exptl_crystal_description 'octahedron'
_diffrn_ambient_temperature 100
#These two values have been output from a single CSD field.
_refine_ls_R_factor_gt 0.0473
_refine_ls_wR_factor_gt 0.0473
_symmetry_cell_setting cubic
_symmetry_space_group_name_H-M 'P 21 3'
_symmetry_Int_Tables_number 198
loop_
_symmetry_equiv_pos_site_id
_symmetry_equiv_pos_as_xyz
1 x,y,z
2 1/2-x,-y,1/2+z
3 1/2+x,1/2-y,-z
4 z,x,y
5 -x,1/2+y,1/2-z
6 1/2-z,-x,1/2+y
7 1/2+z,1/2-x,-y
8 -z,1/2+x,1/2-y
9 y,z,x
10 1/2+y,1/2-z,-x
11 -y,1/2+z,1/2-x
12 1/2-y,-z,1/2+x
_cell_length_a 20.029(8)
_cell_length_b 20.029(8)
_cell_length_c 20.029(8)
_cell_angle_alpha 90
_cell_angle_beta 90
_cell_angle_gamma 90
_cell_formula_units_Z 12
loop_
_atom_type_symbol
_atom_type_radius_bond
C 0.68
H 0.23
O 0.68
loop_
_atom_site_label
_atom_site_type_symbol
_atom_site_fract_x
_atom_site_fract_y
_atom_site_fract_z
O1 O 0.12431(7) 0.18021(7) 0.71425(7)
O2 O 0.21206(7) 0.09748(7) 0.77553(7)
C1 C 0.06627(10) 0.18646(10) 0.75703(10)
C2 C 0.06009(10) 0.1221(1) 0.79832(10)
C3 C 0.07228(10) 0.0572(1) 0.77249(10)
C4 C 0.09827(11) 0.03985(10) 0.70332(10)
C5 C 0.16635(11) 0.02913(10) 0.68757(11)
C6 C 0.22353(10) 0.03684(10) 0.73812(10)
C7 C 0.22442(11) -0.02326(11) 0.78598(11)
H1 H 0.18170 -0.03100 0.81070
C8 C 0.28920(11) -0.02781(11) 0.83001(11)
C9 C 0.32151(12) -0.05894(11) 0.76575(11)
H2 H 0.35650 -0.09370 0.77320
C10 C 0.25106(12) -0.08461(11) 0.74741(13)
H3 H 0.23930 -0.12810 0.76780
H4 H 0.24120 -0.08410 0.69900
C11 C 0.33897(12) -0.00373(12) 0.71769(11)
C12 C 0.29171(11) 0.04086(11) 0.70464(11)
H5 H 0.30050 0.07590 0.67390
C13 C 0.40742(12) -0.00200(14) 0.68816(13)
H6 H 0.41180 0.03730 0.65930
H7 H 0.41480 -0.04250 0.66170
H8 H 0.44060 0.00040 0.72400
C14 C 0.28053(14) -0.07893(13) 0.88596(12)
H9 H 0.32430 -0.09030 0.90460
H10 H 0.25940 -0.11930 0.86810
H11 H 0.25230 -0.06000 0.92110
C15 C 0.31985(11) 0.03479(11) 0.86053(11)
H12 H 0.28750 0.05580 0.89060
H13 H 0.33170 0.06620 0.82490
H14 H 0.36000 0.02270 0.88570
C16 C 0.18153(12) 0.00681(11) 0.62302(11)
H15 H 0.22710 0.00100 0.61120
C17 C 0.13316(13) -0.00705(11) 0.57588(12)
H16 H 0.14540 -0.02250 0.53280
C18 C 0.06687(13) 0.00185(11) 0.59207(11)
H17 H 0.03300 -0.00840 0.56050
C19 C 0.05011(11) 0.02591(10) 0.65496(11)
H18 H 0.00440 0.03310 0.66540
C20 C 0.05533(11) 0.00213(11) 0.81180(11)
H19 H 0.06050 -0.04140 0.79370
C21 C 0.03120(11) 0.00881(12) 0.87630(12)
H20 H 0.02000 -0.02960 0.90180
C22 C 0.02359(11) 0.07186(13) 0.90296(12)
H21 H 0.00890 0.07730 0.94770
C23 C 0.03754(10) 0.12697(12) 0.86411(11)
H22 H 0.03150 0.17010 0.88290
C24 C 0.00301(10) 0.19512(10) 0.71353(10)
H23 H -0.00720 0.15680 0.68320
C25 C -0.00375(11) 0.26644(10) 0.68057(11)
C26 C -0.02988(10) 0.28819(10) 0.75092(11)
H24 H -0.06450 0.32420 0.75150
C27 C -0.05534(11) 0.21650(11) 0.76044(12)
H25 H -0.10040 0.20830 0.74190
H26 H -0.05150 0.19950 0.80670
C28 C 0.02996(11) 0.29825(10) 0.79671(10)
C29 C 0.07431(11) 0.24858(10) 0.7999(1)
H27 H 0.11130 0.25210 0.82930
C30 C 0.03706(12) 0.36308(11) 0.83304(11)
H28 H 0.08050 0.36450 0.85550
H29 H 0.00140 0.36710 0.86630
H30 H 0.03390 0.40010 0.80120
C31 C 0.05565(11) 0.30205(11) 0.65072(11)
H31 H 0.04170 0.34580 0.63390
H32 H 0.07380 0.27550 0.61380
H33 H 0.09010 0.30790 0.68500
C32 C -0.05969(12) 0.26662(12) 0.62782(12)
H34 H -0.07350 0.31270 0.61880
H35 H -0.09790 0.24110 0.64450
H36 H -0.04320 0.24620 0.58650
O3 O 0.21994(7) 0.28006(7) 0.71994(7)
O4 O 0.79934(7) 0.29934(7) 0.20066(7)
#END

data_CSD_CIF_FUBZOR
_audit_creation_date 1988-06-10
_audit_creation_method CSD-ConQuest-V1
_database_code_CSD FUBZOR
_database_code_depnum_ccdc_archive 'CCDC 1160410'
_chemical_formula_sum 'C4 Co1 O4 Tl1'
_chemical_formula_moiety
;
C4 Co1 O4 1-,Tl1 1+
;
_journal_coden_Cambridge 643
_journal_volume 167
_journal_year 1984
_journal_page_first 253
_journal_name_full 'Z.Krist.Cryst.Mater. '
loop_
_publ_author_name
"P.Klufers"
_chemical_name_systematic
;
Thallium tetracarbonyl-cobalt
;
_chemical_melting_point 398.15
_cell_volume    704.494
_exptl_crystal_colour 'yellow'
_exptl_crystal_density_diffrn 3.539
_exptl_special_details
;
Melts with decomposition.

;
_diffrn_ambient_temperature ?
_diffrn_special_details
;
The study was carried out at room temperature,in the range 283-303K

;
#These two values have been output from a single CSD field.
_refine_ls_R_factor_gt 0.025
_refine_ls_wR_factor_gt 0.025
_symmetry_cell_setting cubic
_symmetry_space_group_name_H-M 'P 21 3'
_symmetry_Int_Tables_number 198
loop_
_symmetry_equiv_pos_site_id
_symmetry_equiv_pos_as_xyz
1 x,y,z
2 z,x,y
3 y,z,x
4 1/2+x,1/2-y,-z
5 1/2+z,1/2-x,-y
6 1/2+y,1/2-z,-x
7 -x,1/2+y,1/2-z
8 -z,1/2+x,1/2-y
9 -y,1/2+z,1/2-x
10 1/2-x,-y,1/2+z
11 1/2-z,-x,1/2+y
12 1/2-y,-z,1/2+x
_cell_length_a 8.898(2)
_cell_length_b 8.898(2)
_cell_length_c 8.898(2)
_cell_angle_alpha 90
_cell_angle_beta 90
_cell_angle_gamma 90
_cell_formula_units_Z 4
loop_
_atom_type_symbol
_atom_type_radius_bond
C 0.68
Co 1.33
O 0.68
Tl 1.55
loop_
_atom_site_label
_atom_site_type_symbol
_atom_site_fract_x
_atom_site_fract_y
_atom_site_fract_z
Tl1 Tl 0.81455(5) 0.81455(5) 0.81455(5)
Co1 Co 0.3031(2) 0.3031(2) 0.3031(2)
C1 C 0.4151(13) 0.4151(13) 0.4151(13)
O1 O 0.492(1) 0.492(1) 0.492(1)
C2 C 0.3515(11) 0.3153(17) 0.1111(12)
O2 O 0.3772(9) 0.3142(11) -0.0171(9)
C2A C 0.1111(11) 0.3515(17) 0.3153(12)
C2B C 0.3153(11) 0.1111(17) 0.3515(12)
O2A O -0.0171(9) 0.3772(11) 0.3142(9)
O2B O 0.3142(9) -0.0171(11) 0.3772(9)
#END

data_CSD_CIF_FUBZOR01
_audit_creation_date 1988-06-10
_audit_creation_method CSD-ConQuest-V1
_database_code_CSD FUBZOR01
_database_code_depnum_ccdc_archive 'CCDC 1160411'
_chemical_formula_sum 'C4 Co1 O4 Tl1'
_chemical_formula_moiety
;
C4 Co1 O4 1-,Tl1 1+
;
_journal_coden_Cambridge 643
_journal_volume 167
_journal_year 1984
_journal_page_first 253
_journal_name_full 'Z.Krist.Cryst.Mater. '
loop_
_publ_author_name
"P.Klufers"
_chemical_name_systematic
;
Thallium tetracarbonyl-cobalt
;
_chemical_melting_point 398.15
_cell_volume    678.920
_exptl_crystal_colour 'yellow'
_exptl_crystal_density_diffrn 3.673
_exptl_special_details
;
Melts with decomposition.

;
_diffrn_ambient_temperature 117
#These two values have been output from a single CSD field.
_refine_ls_R_factor_gt 0.028
_refine_ls_wR_factor_gt 0.028
_symmetry_cell_setting cubic
_symmetry_space_group_name_H-M 'P 21 3'
_symmetry_Int_Tables_number 198
loop_
_symmetry_equiv_pos_site_id
_symmetry_equiv_pos_as_xyz
1 x,y,z
2 z,x,y
3 y,z,x
4 1/2+x,1/2-y,-z
5 1/2+z,1/2-x,-y
6 1/2+y,1/2-z,-x
7 -x,1/2+y,1/2-z
8 -z,1/2+x,1/2-y
9 -y,1/2+z,1/2-x
10 1/2-x,-y,1/2+z
11 1/2-z,-x,1/2+y
12 1/2-y,-z,1/2+x
_cell_length_a 8.789(3)
_cell_length_b 8.789(3)
_cell_length_c 8.789(3)
_cell_angle_alpha 90
_cell_angle_beta 90
_cell_angle_gamma 90
_cell_formula_units_Z 4
loop_
_atom_type_symbol
_atom_type_radius_bond
C 0.68
Co 1.33
O 0.68
Tl 1.55
loop_
_atom_site_label
_atom_site_type_symbol
_atom_site_fract_x
_atom_site_fract_y
_atom_site_fract_z
Tl1 Tl 0.81564(4) 0.81564(4) 0.81564(4)
Co1 Co 0.3023(1) 0.3023(1) 0.3023(1)
C1 C 0.4176(10) 0.4176(10) 0.4176(10)
O1 O 0.4942(8) 0.4942(8) 0.4942(8)
C2 C 0.3507(9) 0.3121(13) 0.1065(10)
O2 O 0.3192(8) 0.3180(9) -0.0230(8)
C2A C 0.1065(9) 0.3507(13) 0.3121(10)
C2B C 0.3121(9) 0.1065(13) 0.3507(10)
O2A O -0.0230(8) 0.3192(9) 0.3180(8)
O2B O 0.3180(8) -0.0230(9) 0.3192(8)
#END

data_CSD_CIF_FURWIY
_audit_creation_date 1988-09-05
_audit_creation_method CSD-ConQuest-V1
_database_code_CSD FURWIY
_database_code_depnum_ccdc_archive 'CCDC 1161565'
_chemical_formula_sum 'C14 H42 N2 Ni3 S7'
_chemical_formula_moiety
;
C6 H18 Ni3 S7 2-,2(C4 H12 N1 1+)
;
_journal_coden_Cambridge 186
_journal_year 1988
_journal_page_first 657
_journal_name_full 'J.Chem.Soc.,Dalton Trans. '
loop_
_publ_author_name
"G.Henkel"
"M.Kriege"
"K.Matsumoto"
_chemical_name_systematic
;
bis(Tetramethylammonium) 
(\m~3~-sulfido)-tris((\m~2~-methanethiolato-S,S)-(methanethiolato-S)-nickel)
;
_cell_volume   2628.643
_exptl_crystal_colour 'black'
_exptl_crystal_density_diffrn 1.61
_diffrn_ambient_temperature 150
#These two values have been output from a single CSD field.
_refine_ls_R_factor_gt 0.014
_refine_ls_wR_factor_gt 0.014
_symmetry_cell_setting cubic
_symmetry_space_group_name_H-M 'P 21 3'
_symmetry_Int_Tables_number 198
loop_
_symmetry_equiv_pos_site_id
_symmetry_equiv_pos_as_xyz
1 x,y,z
2 z,x,y
3 y,z,x
4 1/2+x,1/2-y,-z
5 1/2+z,1/2-x,-y
6 1/2+y,1/2-z,-x
7 -x,1/2+y,1/2-z
8 -z,1/2+x,1/2-y
9 -y,1/2+z,1/2-x
10 1/2-x,-y,1/2+z
11 1/2-z,-x,1/2+y
12 1/2-y,-z,1/2+x
_cell_length_a 13.801(4)
_cell_length_b 13.801(4)
_cell_length_c 13.801(4)
_cell_angle_alpha 90
_cell_angle_beta 90
_cell_angle_gamma 90
_cell_formula_units_Z 4
loop_
_atom_type_symbol
_atom_type_radius_bond
C 0.68
H 0.23
N 0.68
Ni 1.50
S 1.02
loop_
_atom_site_label
_atom_site_type_symbol
_atom_site_fract_x
_atom_site_fract_y
_atom_site_fract_z
Ni1 Ni 0.91736(2) 0.97353(2) 1.08339(2)
S1 S 0.93136(5) 0.93136 0.93136
S2 S 0.85110(5) 1.10059(5) 1.01651(5)
S3 S 0.89851(5) 1.00544(5) 1.23801(5)
C1 C 0.8683(3) 1.2067(2) 1.0904(3)
C2 C 0.7774(2) 1.0503(2) 1.2573(2)
H1 H 0.809(2) 1.212(2) 1.125(2)
H2 H 0.872(2) 1.254(2) 1.052(2)
H3 H 0.924(2) 1.201(2) 1.135(2)
H4 H 0.780(3) 1.093(3) 1.300(3)
H5 H 0.742(3) 1.001(3) 1.279(3)
H6 H 0.750(3) 1.079(3) 1.214(3)
N1 N 0.4736(2) 0.47360 0.47360
C3 C 0.5097(2) 0.4782(2) 0.3719(2)
C4 C 0.5359(2) 0.53590 0.53590
H7 H 0.464(2) 0.444(2) 0.334(2)
H8 H 0.567(2) 0.451(2) 0.369(2)
H9 H 0.512(2) 0.544(2) 0.349(2)
H10 H 0.508(2) 0.530(2) 0.601(2)
N2 N 0.2044(2) 0.20440 0.20440
C5 C 0.2647(2) 0.1261(2) 0.1618(2)
C6 C 0.2665(2) 0.26650 0.26650
H11 H 0.231(2) 0.091(2) 0.127(2)
H12 H 0.292(2) 0.090(2) 0.216(2)
H13 H 0.318(2) 0.157(2) 0.128(2)
H14 H 0.233(2) 0.320(2) 0.295(2)
Ni1A Ni 1.08339(2) 0.91736(2) 0.97353(2)
Ni1B Ni 0.97353(2) 1.08339(2) 0.91736(2)
S2A S 1.01651(5) 0.85110(5) 1.10059(5)
S2B S 1.10059(5) 1.01651(5) 0.85110(5)
S3A S 1.23801(5) 0.89851(5) 1.00544(5)
S3B S 1.00544(5) 1.23801(5) 0.89851(5)
C1A C 1.0904(3) 0.8683(2) 1.2067(3)
C1B C 1.2067(3) 1.0904(2) 0.8683(3)
C2A C 1.2573(2) 0.7774(2) 1.0503(2)
C2B C 1.0503(2) 1.2573(2) 0.7774(2)
H1A H 1.125(2) 0.809(2) 1.212(2)
H2A H 1.052(2) 0.872(2) 1.254(2)
H3A H 1.135(2) 0.924(2) 1.201(2)
H1B H 1.212(2) 1.125(2) 0.809(2)
H2B H 1.254(2) 1.052(2) 0.872(2)
H3B H 1.201(2) 1.135(2) 0.924(2)
H4A H 1.300(3) 0.780(3) 1.093(3)
H5A H 1.279(3) 0.742(3) 1.001(3)
H6A H 1.214(3) 0.750(3) 1.079(3)
H4B H 1.093(3) 1.300(3) 0.780(3)
H5B H 1.001(3) 1.279(3) 0.742(3)
H6B H 1.079(3) 1.214(3) 0.750(3)
C3A C 0.3719(2) 0.5097(2) 0.4782(2)
C3B C 0.4782(2) 0.3719(2) 0.5097(2)
H10A H 0.601(2) 0.508(2) 0.530(2)
H10B H 0.530(2) 0.601(2) 0.508(2)
H7A H 0.334(2) 0.464(2) 0.444(2)
H8A H 0.369(2) 0.567(2) 0.451(2)
H9A H 0.349(2) 0.512(2) 0.544(2)
H7B H 0.444(2) 0.334(2) 0.464(2)
H8B H 0.451(2) 0.369(2) 0.567(2)
H9B H 0.544(2) 0.349(2) 0.512(2)
C5A C 0.1618(2) 0.2647(2) 0.1261(2)
C5B C 0.1261(2) 0.1618(2) 0.2647(2)
H14A H 0.295(2) 0.233(2) 0.320(2)
H14B H 0.320(2) 0.295(2) 0.233(2)
H11A H 0.127(2) 0.231(2) 0.091(2)
H12A H 0.216(2) 0.292(2) 0.090(2)
H13A H 0.128(2) 0.318(2) 0.157(2)
H11B H 0.091(2) 0.127(2) 0.231(2)
H12B H 0.090(2) 0.216(2) 0.292(2)
H13B H 0.157(2) 0.128(2) 0.318(2)
#END

data_CSD_CIF_FUYBOQ
_audit_creation_date 1988-09-21
_audit_creation_method CSD-ConQuest-V1
_database_code_CSD FUYBOQ
_chemical_formula_sum 'C18 H48 Br2 N6 Ni1 O3'
_chemical_formula_moiety
;
C18 H42 N6 Ni1 2+,2(Br1 1-),3(H2 O1)
;
_journal_coeditor_code "IUCr AS0046"
_journal_coden_Cambridge 591
_journal_volume 44
_journal_year 1988
_journal_page_first 83
_journal_name_full 'Acta Crystallogr.,Sect.C:Cryst.Struct.Commun. '
loop_
_publ_author_name
"K.Ishida"
"T.Tanase"
"T.Takahashi"
"Y.Sato"
"S.Yano"
"M.Hidai"
"K.Kobayashi"
"T.Sakurai"
_chemical_name_systematic
;
tris((R,R)-1,2-Cyclohexanediamine)-nickel(ii) dibromide trihydrate
;
_cell_volume   2644.675
_exptl_crystal_colour 'violet'
_exptl_crystal_density_diffrn 1.544
_diffrn_ambient_temperature ?
_diffrn_special_details
;
The study was carried out at room temperature,in the range 283-303K

;
#These two values have been output from a single CSD field.
_refine_ls_R_factor_gt 0.044
_refine_ls_wR_factor_gt 0.044
_symmetry_cell_setting cubic
_symmetry_space_group_name_H-M 'P 21 3'
_symmetry_Int_Tables_number 198
loop_
_symmetry_equiv_pos_site_id
_symmetry_equiv_pos_as_xyz
1 x,y,z
2 z,x,y
3 y,z,x
4 1/2+x,1/2-y,-z
5 1/2+z,1/2-x,-y
6 1/2+y,1/2-z,-x
7 -x,1/2+y,1/2-z
8 -z,1/2+x,1/2-y
9 -y,1/2+z,1/2-x
10 1/2-x,-y,1/2+z
11 1/2-z,-x,1/2+y
12 1/2-y,-z,1/2+x
_cell_length_a 13.829(13)
_cell_length_b 13.829(13)
_cell_length_c 13.829(13)
_cell_angle_alpha 90
_cell_angle_beta 90
_cell_angle_gamma 90
_cell_formula_units_Z 4
loop_
_atom_type_symbol
_atom_type_radius_bond
C 0.68
H 0.23
Br 1.21
N 0.68
Ni 1.50
O 0.68
loop_
_atom_site_label
_atom_site_type_symbol
_atom_site_fract_x
_atom_site_fract_y
_atom_site_fract_z
Ni1 Ni 0.3808(3) 0.3808(3) 0.3808(3)
Br1 Br 0.8746(2) 0.8746(2) 0.8746(2)
Br2 Br 0.2009(2) 0.2009(2) 0.2009(2)
N1 N 0.3217(5) 0.4868(5) 0.4754(5)
N2 N 0.2724(5) 0.4351(5) 0.2845(5)
C1 C 0.2605(6) 0.5536(6) 0.4164(6)
C2 C 0.1935(7) 0.6147(7) 0.4793(6)
C3 C 0.1278(8) 0.6794(7) 0.4169(7)
C4 C 0.0703(6) 0.6181(8) 0.3415(7)
C5 C 0.1401(6) 0.5578(7) 0.2799(7)
C6 C 0.2045(6) 0.4936(6) 0.3428(6)
O1 O 0.4553(5) 0.6265(6) 0.5913(5)
H1 H 0.307(5) 0.603(5) 0.377(5)
H2 H 0.238(5) 0.661(5) 0.527(5)
H3 H 0.149(5) 0.568(5) 0.524(5)
H4 H 0.171(5) 0.734(5) 0.378(5)
H5 H 0.076(5) 0.719(5) 0.463(5)
H6 H 0.027(5) 0.666(5) 0.294(6)
H7 H 0.020(5) 0.570(5) 0.379(6)
H8 H 0.186(5) 0.605(5) 0.237(5)
H9 H 0.098(5) 0.512(5) 0.230(5)
H10 H 0.158(5) 0.444(5) 0.383(5)
H11 H 0.281(5) 0.453(5) 0.527(5)
H12 H 0.377(5) 0.524(5) 0.509(5)
H13 H 0.305(5) 0.476(5) 0.232(5)
H14 H 0.238(5) 0.378(5) 0.252(5)
N1A N 0.4754(5) 0.3217(5) 0.4868(5)
N1B N 0.4868(5) 0.4754(5) 0.3217(5)
N2A N 0.2845(5) 0.2724(5) 0.4351(5)
N2B N 0.4351(5) 0.2845(5) 0.2724(5)
C1A C 0.4164(6) 0.2605(6) 0.5536(6)
H11A H 0.527(5) 0.281(5) 0.453(5)
H12A H 0.509(5) 0.377(5) 0.524(5)
C1B C 0.5536(6) 0.4164(6) 0.2605(6)
H11B H 0.453(5) 0.527(5) 0.281(5)
H12B H 0.524(5) 0.509(5) 0.377(5)
C6A C 0.3428(6) 0.2045(6) 0.4936(6)
H13A H 0.232(5) 0.305(5) 0.476(5)
H14A H 0.252(5) 0.238(5) 0.378(5)
C6B C 0.4936(6) 0.3428(6) 0.2045(6)
H13B H 0.476(5) 0.232(5) 0.305(5)
H14B H 0.378(5) 0.252(5) 0.238(5)
C2A C 0.4793(7) 0.1935(7) 0.6147(6)
H1A H 0.377(5) 0.307(5) 0.603(5)
C2B C 0.6147(7) 0.4793(7) 0.1935(6)
H1B H 0.603(5) 0.377(5) 0.307(5)
C5A C 0.2799(6) 0.1401(7) 0.5578(7)
H10A H 0.383(5) 0.158(5) 0.444(5)
C5B C 0.5578(6) 0.2799(7) 0.1401(7)
H10B H 0.444(5) 0.383(5) 0.158(5)
C3A C 0.4169(8) 0.1278(7) 0.6794(7)
H2A H 0.527(5) 0.238(5) 0.661(5)
H3A H 0.524(5) 0.149(5) 0.568(5)
C3B C 0.6794(8) 0.4169(7) 0.1278(7)
H2B H 0.661(5) 0.527(5) 0.238(5)
H3B H 0.568(5) 0.524(5) 0.149(5)
C4A C 0.3415(6) 0.0703(8) 0.6181(7)
H8A H 0.237(5) 0.186(5) 0.605(5)
H9A H 0.230(5) 0.098(5) 0.512(5)
C4B C 0.6181(6) 0.3415(8) 0.0703(7)
H8B H 0.605(5) 0.237(5) 0.186(5)
H9B H 0.512(5) 0.230(5) 0.098(5)
H4A H 0.378(5) 0.171(5) 0.734(5)
H5A H 0.463(5) 0.076(5) 0.719(5)
H4B H 0.734(5) 0.378(5) 0.171(5)
H5B H 0.719(5) 0.463(5) 0.076(5)
H6A H 0.294(5) 0.027(5) 0.666(6)
H7A H 0.379(5) 0.020(5) 0.570(6)
H6B H 0.666(5) 0.294(5) 0.027(6)
H7B H 0.570(5) 0.379(5) 0.020(6)
#END

data_CSD_CIF_GANLIR
_audit_creation_date 2005-09-05
_audit_creation_method CSD-ConQuest-V1
_database_code_CSD GANLIR
_database_code_depnum_ccdc_archive 'CCDC 250633'
_chemical_formula_sum 'C30 H42 F3 N6 Si3 Ti1'
_chemical_formula_moiety
;
C30 H42 F3 N6 Si3 Ti1
;
_journal_coden_Cambridge 1290
_journal_year 2005
_journal_page_first 1689
_journal_name_full 'Eur.J.Inorg.Chem. '
loop_
_publ_author_name
"A.M.Martins"
"J.R.Ascenso"
"C.G.de Azevedo"
"A.R.Dias"
"M.T.Duarte"
"H.Ferreira"
"M.J.Ferreira"
"R.T.Henriques"
"M.A.Lemos"
"Li Li"
"J.F.da Silva"
_chemical_name_systematic
;
(1,4,7-tris(Dimethyl(2-fluorophenylamido)silyl)-1,4,7-triazacyclononane-N,N',N
'',N''',N'''',N''''')-titanium(iii)
;
_cell_volume   3429.289
_exptl_crystal_colour 'red'
_exptl_crystal_density_diffrn 1.31
_exptl_crystal_description 'prism'
_exptl_crystal_preparation 'toluene'
_diffrn_ambient_temperature 293
#These two values have been output from a single CSD field.
_refine_ls_R_factor_gt 0.04
_refine_ls_wR_factor_gt 0.04
_symmetry_cell_setting cubic
_symmetry_space_group_name_H-M 'P 21 3'
_symmetry_Int_Tables_number 198
loop_
_symmetry_equiv_pos_site_id
_symmetry_equiv_pos_as_xyz
1 x,y,z
2 1/2-x,-y,1/2+z
3 -x,1/2+y,1/2-z
4 1/2+x,1/2-y,-z
5 z,x,y
6 1/2+z,1/2-x,-y
7 1/2-z,-x,1/2+y
8 -z,1/2+x,1/2-y
9 y,z,x
10 -y,1/2+z,1/2-x
11 1/2+y,1/2-z,-x
12 1/2-y,-z,1/2+x
_cell_length_a 15.080(2)
_cell_length_b 15.080(2)
_cell_length_c 15.080(2)
_cell_angle_alpha 90
_cell_angle_beta 90
_cell_angle_gamma 90
_cell_formula_units_Z 4
loop_
_atom_type_symbol
_atom_type_radius_bond
C 0.68
H 0.23
F 0.64
N 0.68
Si 1.20
Ti 1.32
loop_
_atom_site_label
_atom_site_type_symbol
_atom_site_fract_x
_atom_site_fract_y
_atom_site_fract_z
Ti1 Ti 0.83892(3) 0.33892(3) 0.16108(3)
Si1 Si 0.85428(6) 0.21746(6) 0.00985(6)
N1 N 0.90886(17) 0.32210(17) 0.02460(17)
N2 N 0.82785(18) 0.20790(16) 0.11978(17)
C1 C 0.8909(2) 0.3963(2) -0.0365(2)
H1 H 0.87780 0.37300 -0.09510
H2 H 0.94330 0.43330 -0.04110
C2 C 1.0044(2) 0.3135(2) 0.0483(2)
H3 H 1.03930 0.31010 -0.00560
H4 H 1.01320 0.25890 0.08120
C3 C 0.9297(3) 0.1302(3) -0.0334(3)
H5 H 0.94090 0.14070 -0.09530
H6 H 0.90240 0.07310 -0.02620
H7 H 0.98460 0.13180 -0.00130
C4 C 0.7628(3) 0.2358(3) -0.0707(3)
H8 H 0.78670 0.23970 -0.12960
H9 H 0.73250 0.29000 -0.05650
H10 H 0.72170 0.18720 -0.06770
C5 C 0.8000(2) 0.1311(2) 0.1633(2)
C6 C 0.8167(3) 0.1159(2) 0.2522(2)
H11 H 0.85110 0.15660 0.28320
C7 C 0.7840(3) 0.0423(3) 0.2971(3)
H12 H 0.79550 0.03570 0.35740
C8 C 0.7350(3) -0.0205(3) 0.2535(4)
H13 H 0.71290 -0.06970 0.28340
C9 C 0.7193(3) -0.0091(3) 0.1645(4)
H14 H 0.68720 -0.05150 0.13330
C10 C 0.7506(3) 0.0638(3) 0.1221(3)
F1 F 0.7316(2) 0.07348(17) 0.03375(18)
Si1G Si 0.99015(6) 0.35428(6) 0.28254(6)
Si1J Si 0.71746(6) 0.49015(6) 0.14572(6)
N1G N 0.97540(17) 0.40886(17) 0.17790(17)
N1J N 0.82210(17) 0.47540(17) 0.09114(17)
N2G N 0.88022(18) 0.32785(16) 0.29210(17)
N2J N 0.70790(18) 0.38022(16) 0.17215(17)
C1J C 0.8963(2) 0.5365(2) 0.1091(2)
C1G C 1.0365(2) 0.3909(2) 0.1037(2)
H1J H 0.87300 0.59510 0.12220
H1G H 1.09510 0.37780 0.12700
H2J H 0.93330 0.54110 0.05670
H2G H 1.04110 0.44330 0.06670
C2G C 0.9517(2) 0.5044(2) 0.1865(2)
C2J C 0.8135(2) 0.4517(2) -0.0044(2)
H3J H 0.81010 0.50560 -0.03930
H3G H 1.00560 0.53930 0.18990
H4J H 0.75890 0.41880 -0.01320
H4G H 0.91880 0.51320 0.24110
C3J C 0.6302(3) 0.5334(3) 0.0703(3)
C3G C 1.0334(3) 0.4297(3) 0.3698(3)
H5J H 0.64070 0.59530 0.05910
H5G H 1.09530 0.44090 0.35930
H6J H 0.57310 0.52620 0.09760
H6G H 1.02620 0.40240 0.42690
H7J H 0.63180 0.50130 0.01540
H7G H 1.00130 0.48460 0.36820
C4J C 0.7358(3) 0.5707(3) 0.2372(3)
C4G C 1.0707(3) 0.2628(3) 0.2642(3)
H8J H 0.73970 0.62960 0.21330
H8G H 1.12960 0.28670 0.26030
H9J H 0.79000 0.55650 0.26750
H9G H 1.05650 0.23250 0.21000
H10J H 0.68720 0.56770 0.27830
H10G H 1.06770 0.22170 0.31280
C5J C 0.6311(2) 0.3367(2) 0.2000(2)
C5G C 0.8367(2) 0.3000(2) 0.3689(2)
C6J C 0.6159(3) 0.2478(2) 0.1833(2)
C6G C 0.7478(3) 0.3167(2) 0.3841(2)
H11J H 0.65660 0.21680 0.14890
H11G H 0.71680 0.35110 0.34340
C7J C 0.5423(3) 0.2029(3) 0.2160(3)
C7G C 0.7029(3) 0.2840(3) 0.4577(3)
H12J H 0.53570 0.14260 0.20450
H12G H 0.64260 0.29550 0.46430
C8J C 0.4795(3) 0.2465(3) 0.2650(4)
C8G C 0.7465(3) 0.2350(3) 0.5205(4)
H13J H 0.43030 0.21660 0.28710
H13G H 0.71660 0.21290 0.56970
C9J C 0.4909(3) 0.3355(3) 0.2807(4)
C9G C 0.8355(3) 0.2193(3) 0.5091(4)
H14J H 0.44850 0.36670 0.31280
H14G H 0.86670 0.18720 0.55150
C10J C 0.5638(3) 0.3779(3) 0.2494(3)
C10G C 0.8779(3) 0.2506(3) 0.4362(3)
F1J F 0.57348(20) 0.46625(17) 0.26840(18)
F1G F 0.96625(20) 0.23160(17) 0.42652(18)
#END

data_CSD_CIF_GAXSUT
_audit_creation_date 1989-01-20
_audit_creation_method CSD-ConQuest-V1
_database_code_CSD GAXSUT
_database_code_depnum_ccdc_archive 'CCDC 1164579'
_chemical_formula_sum 'C14 H42 Cu2 P4'
_chemical_formula_moiety
;
C2 H6 Cu1 1-,C12 H36 Cu1 P4 1+
;
_journal_coden_Cambridge 579
_journal_volume 7
_journal_year 1988
_journal_page_first 1208
_journal_name_full 'Organometallics '
loop_
_publ_author_name
"D.F.Dempsey"
"G.S.Girolami"
_chemical_name_systematic
;
tetrakis(Trimethylphosphine)-copper(i) dimethyl-copper(i)
;
_chemical_melting_point 362.15
_cell_volume   2552.256
_exptl_crystal_colour 'colorless'
_exptl_crystal_density_diffrn 1.201
_exptl_special_details
;
Melts with decomposition.
Air-sensitive

;
_diffrn_ambient_temperature ?
_diffrn_special_details
;
The study was carried out at room temperature,in the range 283-303K

;
#These two values have been output from a single CSD field.
_refine_ls_R_factor_gt 0.042
_refine_ls_wR_factor_gt 0.042
_symmetry_cell_setting cubic
_symmetry_space_group_name_H-M 'P 21 3'
_symmetry_Int_Tables_number 198
loop_
_symmetry_equiv_pos_site_id
_symmetry_equiv_pos_as_xyz
1 x,y,z
2 z,x,y
3 y,z,x
4 1/2+x,1/2-y,-z
5 1/2+z,1/2-x,-y
6 1/2+y,1/2-z,-x
7 -x,1/2+y,1/2-z
8 -z,1/2+x,1/2-y
9 -y,1/2+z,1/2-x
10 1/2-x,-y,1/2+z
11 1/2-z,-x,1/2+y
12 1/2-y,-z,1/2+x
_cell_length_a 13.666(2)
_cell_length_b 13.666(2)
_cell_length_c 13.666(2)
_cell_angle_alpha 90
_cell_angle_beta 90
_cell_angle_gamma 90
_cell_formula_units_Z 4
loop_
_atom_type_symbol
_atom_type_radius_bond
C 0.68
H 0.23
Cu 1.52
P 1.05
loop_
_atom_site_label
_atom_site_type_symbol
_atom_site_fract_x
_atom_site_fract_y
_atom_site_fract_z
Cu1 Cu 0.03882(9) 0.03882(9) 0.03882(9)
P1 P -0.0323(2) 0.0585(2) 0.1875(2)
P2 P -0.0564(2) -0.0564(2) -0.0564(2)
C1 C 0.018(1) 0.1526(9) 0.2662(9)
C2 C -0.029(1) -0.0469(9) 0.2698(9)
C3 C -0.1604(10) 0.094(1) 0.1894(10)
C4 C -0.011(1) -0.076(1) -0.1774(9)
H1 H 0.08680 0.14340 0.27170
H2 H -0.01100 0.14810 0.32920
H3 H 0.00520 0.21530 0.23910
H4 H -0.05440 -0.10260 0.23680
H5 H -0.06790 -0.03340 0.32570
H6 H 0.03650 -0.05970 0.28960
H7 H -0.19670 0.04980 0.15000
H8 H -0.16770 0.15850 0.16470
H9 H -0.18400 0.09140 0.25480
H10 H -0.05630 -0.11710 -0.21130
H11 H 0.05070 -0.10780 -0.17450
H12 H -0.00500 -0.01580 -0.21080
Cu2 Cu 0.3622(1) 0.3622(1) 0.3622(1)
C5 C 0.445(1) 0.445(1) 0.445(1)
C6 C 0.2807(9) 0.2807(9) 0.2807(9)
P1A P 0.1875(2) -0.0323(2) 0.0585(2)
P1B P 0.0585(2) 0.1875(2) -0.0323(2)
C4A C -0.1774(10) -0.011(1) -0.0760(9)
C4B C -0.076(1) -0.1774(10) -0.0110(9)
C1A C 0.2662(10) 0.0180(9) 0.1526(9)
C2A C 0.2698(10) -0.0290(9) -0.0469(9)
C3A C 0.1894(10) -0.1604(10) 0.094(1)
C1B C 0.1526(10) 0.2662(9) 0.0180(9)
C2B C -0.0469(10) 0.2698(9) -0.0290(9)
C3B C 0.094(1) 0.1894(10) -0.1604(10)
H10A H -0.21130 -0.05630 -0.11710
H11A H -0.17450 0.05070 -0.10780
H12A H -0.21080 -0.00500 -0.01580
H10B H -0.11710 -0.21130 -0.05630
H11B H -0.10780 -0.17450 0.05070
H12B H -0.01580 -0.21080 -0.00500
H1A H 0.27170 0.08680 0.14340
H2A H 0.32920 -0.01100 0.14810
H3A H 0.23910 0.00520 0.21530
H4A H 0.23680 -0.05440 -0.10260
H5A H 0.32570 -0.06790 -0.03340
H6A H 0.28960 0.03650 -0.05970
H7A H 0.15000 -0.19670 0.04980
H8A H 0.16470 -0.16770 0.15850
H9A H 0.25480 -0.18400 0.09140
H1B H 0.14340 0.27170 0.08680
H2B H 0.14810 0.32920 -0.01100
H3B H 0.21530 0.23910 0.00520
H4B H -0.10260 0.23680 -0.05440
H5B H -0.03340 0.32570 -0.06790
H6B H -0.05970 0.28960 0.03650
H7B H 0.04980 0.15000 -0.19670
H8B H 0.15850 0.16470 -0.16770
H9B H 0.09140 0.25480 -0.18400
#END

data_CSD_CIF_GECDIB
_audit_creation_date 1989-02-16
_audit_creation_method CSD-ConQuest-V1
_database_code_CSD GECDIB
_chemical_formula_sum 'C15 H36 Br3 Co1 N6'
_chemical_formula_moiety
;
C15 H36 Co1 N6 3+,3(Br1 1-)
;
_journal_coden_Cambridge 9
_journal_volume 27
_journal_year 1988
_journal_page_first 2626
_journal_name_full 'Inorg.Chem. '
loop_
_publ_author_name
"G.W.Bushnell"
"D.G.Fortier"
"A.McAuley"
_chemical_name_systematic
;
(1,4,7-tris(3-Aminopropyl)-1,4,7-triazacyclononane)-cobalt(iii) tribromide
;
_cell_volume   2132.244
_exptl_crystal_colour 'orange'
_exptl_crystal_density_diffrn 1.866
_diffrn_ambient_temperature ?
_diffrn_special_details
;
The study was carried out at room temperature,in the range 283-303K

;
#These two values have been output from a single CSD field.
_refine_ls_R_factor_gt 0.0257
_refine_ls_wR_factor_gt 0.0257
_symmetry_cell_setting cubic
_symmetry_space_group_name_H-M 'P 21 3'
_symmetry_Int_Tables_number 198
loop_
_symmetry_equiv_pos_site_id
_symmetry_equiv_pos_as_xyz
1 x,y,z
2 z,x,y
3 y,z,x
4 1/2+x,1/2-y,-z
5 1/2+z,1/2-x,-y
6 1/2+y,1/2-z,-x
7 -x,1/2+y,1/2-z
8 -z,1/2+x,1/2-y
9 -y,1/2+z,1/2-x
10 1/2-x,-y,1/2+z
11 1/2-z,-x,1/2+y
12 1/2-y,-z,1/2+x
_cell_length_a 12.871(2)
_cell_length_b 12.871(2)
_cell_length_c 12.871(2)
_cell_angle_alpha 90
_cell_angle_beta 90
_cell_angle_gamma 90
_cell_formula_units_Z 4
loop_
_atom_type_symbol
_atom_type_radius_bond
C 0.68
H 0.23
Br 1.21
Co 1.33
N 0.68
loop_
_atom_site_label
_atom_site_type_symbol
_atom_site_fract_x
_atom_site_fract_y
_atom_site_fract_z
Br1 Br 0.81447(7) 0.81447 0.81447
Br2 Br 0.02335(6) 0.02335 0.02335
Br3 Br 0.57328(8) 0.57328 0.57328
Co1 Co 0.21085(8) 0.21085 0.21085
N1 N 0.2476(5) 0.3625(5) 0.1898(6)
N2 N 0.2326(5) 0.1765(5) 0.0614(5)
C1 C 0.2181(7) 0.4109(7) 0.0864(7)
C2 C 0.2551(7) 0.3537(7) -0.0080(7)
C3 C 0.2020(7) 0.2507(7) -0.0228(6)
C4 C 0.1902(6) 0.4201(6) 0.2732(6)
C5 C 0.3655(6) 0.3756(7) 0.2047(7)
H1 H 0.24660 0.48960 0.08410
H2 H 0.13300 0.41500 0.08250
H3 H 0.33870 0.34050 -0.00200
H4 H 0.24320 0.40100 -0.07740
H5 H 0.18950 0.10380 0.04750
H6 H 0.31390 0.15830 0.05200
H7 H 0.11890 0.26220 -0.02250
H8 H 0.22270 0.21820 -0.09830
H9 H 0.22380 0.49560 0.28010
H10 H 0.10810 0.41450 0.25510
H11 H 0.39280 0.42690 0.14640
H12 H 0.37900 0.39780 0.28520
N1A N 0.1898(5) 0.2476(5) 0.3625(6)
N1B N 0.3625(5) 0.1898(5) 0.2476(6)
N2A N 0.0614(5) 0.2326(5) 0.1765(5)
N2B N 0.1765(5) 0.0614(5) 0.2326(5)
C5A C 0.2047(6) 0.3655(7) 0.3756(7)
C4B C 0.4201(6) 0.2732(6) 0.1902(6)
C1A C 0.0864(7) 0.2181(7) 0.4109(7)
C4A C 0.2732(6) 0.1902(6) 0.4201(6)
C1B C 0.4109(7) 0.0864(7) 0.2181(7)
C5B C 0.3756(6) 0.2047(7) 0.3655(7)
C3A C -0.0228(7) 0.2020(7) 0.2507(6)
H5A H 0.04750 0.18950 0.10380
H6A H 0.05200 0.31390 0.15830
C3B C 0.2507(7) -0.0228(7) 0.2020(6)
H5B H 0.10380 0.04750 0.18950
H6B H 0.15830 0.05200 0.31390
H11A H 0.14640 0.39280 0.42690
H12A H 0.28520 0.37900 0.39780
H9B H 0.49560 0.28010 0.22380
H10B H 0.41450 0.25510 0.10810
C2A C -0.0080(7) 0.2551(7) 0.3537(7)
H1A H 0.08410 0.24660 0.48960
H2A H 0.08250 0.13300 0.41500
H9A H 0.28010 0.22380 0.49560
H10A H 0.25510 0.10810 0.41450
C2B C 0.3537(7) -0.0080(7) 0.2551(7)
H1B H 0.48960 0.08410 0.24660
H2B H 0.41500 0.08250 0.13300
H11B H 0.42690 0.14640 0.39280
H12B H 0.39780 0.28520 0.37900
H7A H -0.02250 0.11890 0.26220
H8A H -0.09830 0.22270 0.21820
H7B H 0.26220 -0.02250 0.11890
H8B H 0.21820 -0.09830 0.22270
H3A H -0.00200 0.33870 0.34050
H4A H -0.07740 0.24320 0.40100
H3B H 0.34050 -0.00200 0.33870
H4B H 0.40100 -0.07740 0.24320
#END

data_CSD_CIF_GENWAZ
_audit_creation_date 2013-04-04
_audit_creation_method CSD-ConQuest-V1
_database_code_CSD GENWAZ
_database_code_depnum_ccdc_archive 'CCDC 918985'
_chemical_formula_sum 'C30 H33 Cl4 Co2 N7 O6'
_chemical_formula_moiety
;
C30 H33 Co1 N7 O6 2+,Cl4 Co1 2-
;
_journal_coden_Cambridge 9
_journal_volume 51
_journal_year 2012
_journal_page_first 12493
_journal_name_full 'Inorg.Chem. '
loop_
_publ_author_name
"A.M.McDaniel"
"A.K.Rappe"
"M.P.Shores"
_chemical_name_systematic
;
(Trimethyl 
6,6',6''-(nitrilotris(ethane-2,1-diyl(nitrilo)methylylidene))trinicotinate)-co
balt(ii) tetrachloro-cobalt(ii)
;
_cell_volume   3675.936
_exptl_crystal_colour 'green'
_exptl_crystal_density_diffrn 1.531
_exptl_crystal_description 'triangular plate'
_diffrn_ambient_temperature 120
#These two values have been output from a single CSD field.
_refine_ls_R_factor_gt 0.0231
_refine_ls_wR_factor_gt 0.0231
_symmetry_cell_setting cubic
_symmetry_space_group_name_H-M 'P 21 3'
_symmetry_Int_Tables_number 198
loop_
_symmetry_equiv_pos_site_id
_symmetry_equiv_pos_as_xyz
1 x,y,z
2 1/2-x,-y,1/2+z
3 -x,1/2+y,1/2-z
4 1/2+x,1/2-y,-z
5 z,x,y
6 1/2+z,1/2-x,-y
7 1/2-z,-x,1/2+y
8 -z,1/2+x,1/2-y
9 y,z,x
10 -y,1/2+z,1/2-x
11 1/2+y,1/2-z,-x
12 1/2-y,-z,1/2+x
_cell_length_a 15.4332(4)
_cell_length_b 15.4332(4)
_cell_length_c 15.4332(4)
_cell_angle_alpha 90
_cell_angle_beta 90
_cell_angle_gamma 90
_cell_formula_units_Z 4
loop_
_atom_type_symbol
_atom_type_radius_bond
C 0.68
H 0.23
Cl 0.99
Co 1.26
N 0.68
O 0.68
loop_
_atom_site_label
_atom_site_type_symbol
_atom_site_fract_x
_atom_site_fract_y
_atom_site_fract_z
Cl1 Cl 0.692685(19) 0.807315(19) 0.192685(19)
Co1 Co 0.606769(11) 0.893231(11) 0.106769(11)
Cl2 Cl 0.60441(3) 0.83651(2) -0.02982(2)
Co2 Co 0.500191(10) 0.499809(10) -0.000191(10)
O1 O 0.85739(8) 0.24288(7) -0.00922(9)
N1 N 0.40194(7) 0.59806(7) 0.09806(7)
C1 C 0.36266(12) 0.53934(13) 0.16157(12)
H1 H 0.30510 0.56170 0.17890
H2 H 0.39960 0.53640 0.21400
N2 N 0.43947(7) 0.42446(7) 0.09353(7)
O2 O 0.84307(7) 0.38206(7) -0.04834(9)
C2 C 0.35293(9) 0.44941(11) 0.12291(11)
H3 H 0.33130 0.40810 0.16700
H4 H 0.31180 0.45040 0.07370
N3 N 0.59918(6) 0.40356(6) 0.04204(6)
C3 C 0.47907(9) 0.36130(9) 0.12785(8)
H5 H 0.45260 0.32670 0.17140
C4 C 0.56757(8) 0.34367(8) 0.09754(7)
C5 C 0.61458(9) 0.27003(9) 0.12039(8)
H6 H 0.59110 0.22910 0.15990
C6 C 0.69588(10) 0.25727(8) 0.08486(9)
H7 H 0.72830 0.20670 0.09820
C7 C 0.72916(8) 0.31961(8) 0.02942(8)
C8 C 0.67862(7) 0.39206(7) 0.01033(7)
H8 H 0.70190 0.43510 -0.02700
C9 C 0.81631(9) 0.30898(8) -0.01085(10)
C10 C 0.92647(12) 0.37805(13) -0.09168(15)
H9 H 0.94000 0.43470 -0.11690
H10 H 0.92430 0.33440 -0.13770
H11 H 0.97140 0.36230 -0.04970
Cl2E Cl 0.47018(3) 0.89559(2) 0.16349(2)
Cl2K Cl 0.66349(3) 1.02982(2) 0.10441(2)
O1F O 0.50922(8) 0.14261(7) -0.25712(9)
O1I O 0.75712(8) 0.49078(7) -0.35739(9)
C1F C 0.33843(12) 0.63734(13) 0.03934(12)
C1I C 0.46066(12) 0.66157(13) 0.13734(12)
H1F H 0.32110 0.69490 0.06170
H1I H 0.43830 0.67890 0.19490
H2F H 0.28600 0.60040 0.03640
H2I H 0.46360 0.71400 0.10040
N2F N 0.40647(7) 0.56053(7) -0.07554(7)
N2I N 0.57554(7) 0.59353(7) 0.06053(7)
O2F O 0.54834(7) 0.15693(7) -0.11794(9)
O2I O 0.61794(7) 0.45166(7) -0.34307(9)
C2F C 0.37709(9) 0.64707(11) -0.05059(11)
C2I C 0.55059(9) 0.62291(11) 0.14707(11)
H3F H 0.33300 0.66870 -0.09190
H3I H 0.59190 0.66700 0.16870
H4F H 0.42630 0.68820 -0.04960
H4I H 0.54960 0.57370 0.18820
N3F N 0.45796(6) 0.40082(6) -0.09644(6)
N3I N 0.59644(6) 0.54204(6) -0.09918(6)
C3F C 0.37215(9) 0.52093(9) -0.13870(8)
C3I C 0.63870(9) 0.62785(9) 0.02093(8)
H5F H 0.32860 0.54740 -0.17330
H5I H 0.67330 0.67140 0.04740
C4F C 0.40246(8) 0.43243(8) -0.15633(7)
C4I C 0.65633(8) 0.59754(8) -0.06757(7)
C5F C 0.37961(9) 0.38542(9) -0.22997(8)
C5I C 0.72997(9) 0.62039(9) -0.11458(8)
H6F H 0.34010 0.40890 -0.27090
H6I H 0.77090 0.65990 -0.09110
C6F C 0.41514(10) 0.30412(8) -0.24273(9)
C6I C 0.74273(10) 0.58486(8) -0.19588(9)
H7F H 0.40180 0.27170 -0.29330
H7I H 0.79330 0.59820 -0.22830
C7F C 0.47058(8) 0.27084(8) -0.18039(8)
C7I C 0.68039(8) 0.52942(8) -0.22916(8)
C8F C 0.48967(7) 0.32138(7) -0.10794(7)
C8I C 0.60794(7) 0.51033(7) -0.17862(7)
H8F H 0.52700 0.29810 -0.06490
H8I H 0.56490 0.47300 -0.20190
C9F C 0.51085(9) 0.18369(8) -0.19102(10)
C9I C 0.69102(9) 0.48915(8) -0.31631(10)
C10F C 0.59168(12) 0.07353(13) -0.12195(15)
C10I C 0.62195(12) 0.40832(13) -0.42647(15)
H9F H 0.61690 0.06000 -0.06530
H9I H 0.56530 0.38310 -0.44000
H10F H 0.63770 0.07570 -0.16560
H10I H 0.66560 0.36230 -0.42430
H11F H 0.54970 0.02860 -0.13770
H11I H 0.63770 0.45030 -0.47140
#END

data_CSD_CIF_GESHOB
_audit_creation_date 1999-04-16
_audit_creation_method CSD-ConQuest-V1
_database_code_CSD GESHOB
_database_code_depnum_ccdc_archive 'CCDC 1166374'
_database_code_depnum_ccdc_fiz 'CSD 402673'
_chemical_formula_sum 'C36 H81 Bi1 O9 S3 Si3'
_chemical_formula_moiety
;
C36 H81 Bi1 O9 S3 Si3
;
_journal_coden_Cambridge 1267
_journal_volume 212
_journal_year 1997
_journal_page_first 345
_journal_name_full 'Z.Kristallogr.-New Cryst.Struct. '
loop_
_publ_author_name
"K.Peters"
"E.-M.Peters"
"H.G.von Schnering"
"W.Wojnowski"
"S.Tamulewicz"
"K.Radacki"
_chemical_name_systematic
;
tris(Tri-t-butoxysilanethiolato)-bismuth(iii)
;
_cell_volume   5633.101
_exptl_crystal_colour 'pale yellow'
_exptl_crystal_description 'prism'
_diffrn_ambient_temperature ?
_diffrn_special_details
;
The study was carried out at room temperature,in the range 283-303K

;
#These two values have been output from a single CSD field.
_refine_ls_R_factor_gt 0.0462
_refine_ls_wR_factor_gt 0.0462
_symmetry_cell_setting cubic
_symmetry_space_group_name_H-M 'P 21 3'
_symmetry_Int_Tables_number 198
loop_
_symmetry_equiv_pos_site_id
_symmetry_equiv_pos_as_xyz
1 x,y,z
2 1/2-x,-y,1/2+z
3 1/2+x,1/2-y,-z
4 z,x,y
5 -x,1/2+y,1/2-z
6 1/2-z,-x,1/2+y
7 1/2+z,1/2-x,-y
8 -z,1/2+x,1/2-y
9 y,z,x
10 1/2+y,1/2-z,-x
11 -y,1/2+z,1/2-x
12 1/2-y,-z,1/2+x
_cell_length_a 17.793(2)
_cell_length_b 17.793(2)
_cell_length_c 17.793(2)
_cell_angle_alpha 90
_cell_angle_beta 90
_cell_angle_gamma 90
_cell_formula_units_Z 4
loop_
_atom_type_symbol
_atom_type_radius_bond
C 0.68
H 0.23
Bi 1.54
O 0.68
S 1.02
Si 1.20
loop_
_atom_site_label
_atom_site_type_symbol
_atom_site_fract_x
_atom_site_fract_y
_atom_site_fract_z
Bi1 Bi 0.77495(2) 0.77495(2) 0.77495(2)
S1 S 0.91613(17) 0.75846(20) 0.78430(18)
Si1 Si 0.93642(17) 0.73075(21) 0.67076(18)
O1 O 0.85563(39) 0.72364(66) 0.63370(41)
C1 C 0.82648(83) 0.7082(10) 0.56172(75)
C2 C 0.8848(11) 0.6975(11) 0.5045(10)
H1 H 0.9154(11) 0.6549(11) 0.5168(10)
H2 H 0.9154(11) 0.7419(11) 0.5033(10)
H3 H 0.8621(11) 0.6899(11) 0.4561(10)
C3 C 0.7779(12) 0.64234(96) 0.5671(11)
H4 H 0.7564(12) 0.63231(96) 0.5186(11)
H5 H 0.7384(12) 0.64961(96) 0.6031(11)
H6 H 0.8086(12) 0.60056(96) 0.5821(11)
C4 C 0.7816(11) 0.7730(11) 0.53987(98)
H7 H 0.7607(11) 0.7653(11) 0.49073(98)
H8 H 0.8129(11) 0.8169(11) 0.53944(98)
H9 H 0.7416(11) 0.7797(11) 0.57550(98)
O2 O 0.98575(98) 0.7874(10) 0.62901(66)
C5 C 1.0245(11) 0.8543(10) 0.62217(82)
C6 C 1.0669(14) 0.8540(14) 0.5518(13)
H10 H 1.0956(14) 0.8969(14) 0.5360(13)
H11 H 1.0336(14) 0.8390(14) 0.5121(13)
H12 H 1.1004(14) 0.8134(14) 0.5636(13)
C7 C 1.0718(13) 0.8635(14) 0.6886(14)
H13 H 1.0981(13) 0.9100(14) 0.6963(14)
H14 H 1.1070(13) 0.8226(14) 0.6902(14)
H15 H 1.0350(13) 0.8571(14) 0.7275(14)
C8 C 0.9773(14) 0.9166(13) 0.6095(14)
H16 H 0.9535(14) 0.9167(13) 0.5612(14)
H17 H 0.9987(14) 0.9652(13) 0.6192(14)
H18 H 0.9408(14) 0.9052(13) 0.6475(14)
O3 O 0.9747(11) 0.65604(95) 0.66282(69)
C9 C 1.0249(13) 0.6025(12) 0.6813(12)
C10 C 1.0720(16) 0.5888(19) 0.6228(17)
H19 H 1.1130(16) 0.5562(19) 0.6358(17)
H20 H 1.0913(16) 0.6371(19) 0.6086(17)
H21 H 1.0445(16) 0.5676(19) 0.5815(17)
C11 C 1.0661(13) 0.6159(14) 0.7461(13)
H22 H 1.1080(13) 0.5831(14) 0.7555(13)
H23 H 1.0344(13) 0.6174(14) 0.7897(13)
H24 H 1.0843(13) 0.6655(14) 0.7353(13)
C12 C 0.9873(17) 0.5401(17) 0.6871(17)
H25 H 1.0097(17) 0.4952(17) 0.7070(17)
H26 H 0.9507(17) 0.5268(17) 0.6497(17)
H27 H 0.9633(17) 0.5674(17) 0.7269(17)
S1C S 0.78430(17) 0.91613(20) 0.75846(18)
Si1C Si 0.67076(17) 0.93642(21) 0.73075(18)
O1C O 0.63370(39) 0.85563(66) 0.72364(41)
C1C C 0.56172(83) 0.82648(100) 0.70820(75)
C2C C 0.5045(11) 0.8848(11) 0.6975(10)
H1C H 0.5168(11) 0.9154(11) 0.6549(10)
H2C H 0.5033(11) 0.9154(11) 0.7419(10)
H3C H 0.4561(11) 0.8621(11) 0.6899(10)
C3C C 0.5671(12) 0.77790(96) 0.64234(110)
H4C H 0.5186(12) 0.75640(96) 0.63231(110)
H5C H 0.6031(12) 0.73840(96) 0.64961(110)
H6C H 0.5821(12) 0.80860(96) 0.60056(110)
C4C C 0.53987(110) 0.7816(11) 0.77300(98)
H7C H 0.49073(110) 0.7607(11) 0.76530(98)
H8C H 0.53944(110) 0.8129(11) 0.81690(98)
H9C H 0.5755(11) 0.7416(11) 0.77970(98)
O2C O 0.62901(98) 0.98575(100) 0.78740(66)
C5C C 0.62217(110) 1.0245(10) 0.85430(82)
C6C C 0.5518(14) 1.0669(14) 0.8540(13)
H10C H 0.5360(14) 1.0956(14) 0.8969(13)
H11C H 0.5121(14) 1.0336(14) 0.8390(13)
H12C H 0.5636(14) 1.1004(14) 0.8134(13)
C7C C 0.6886(13) 1.0718(14) 0.8635(14)
H13C H 0.6963(13) 1.0981(14) 0.9100(14)
H14C H 0.6902(13) 1.1070(14) 0.8226(14)
H15C H 0.7275(13) 1.0350(14) 0.8571(14)
C8C C 0.6095(14) 0.9773(13) 0.9166(14)
H16C H 0.5612(14) 0.9535(13) 0.9167(14)
H17C H 0.6192(14) 0.9987(13) 0.9652(14)
H18C H 0.6475(14) 0.9408(13) 0.9052(14)
O3C O 0.66282(110) 0.97470(95) 0.65604(69)
C9C C 0.6813(13) 1.0249(12) 0.6025(12)
C10C C 0.6228(16) 1.0720(19) 0.5888(17)
H19C H 0.6358(16) 1.1130(19) 0.5562(17)
H20C H 0.6086(16) 1.0913(19) 0.6371(17)
H21C H 0.5815(16) 1.0445(19) 0.5676(17)
C11C C 0.7461(13) 1.0661(14) 0.6159(13)
H22C H 0.7555(13) 1.1080(14) 0.5831(13)
H23C H 0.7897(13) 1.0344(14) 0.6174(13)
H24C H 0.7353(13) 1.0843(14) 0.6655(13)
C12C C 0.6871(17) 0.9873(17) 0.5401(17)
H25C H 0.7070(17) 1.0097(17) 0.4952(17)
H26C H 0.6497(17) 0.9507(17) 0.5268(17)
H27C H 0.7269(17) 0.9633(17) 0.5674(17)
S1H S 0.75846(17) 0.7843(2) 0.91613(18)
Si1H Si 0.73075(17) 0.67076(21) 0.93642(18)
O1H O 0.72364(39) 0.63370(66) 0.85563(41)
C1H C 0.70820(83) 0.56172(100) 0.82648(75)
C2H C 0.6975(11) 0.5045(11) 0.8848(10)
H1H H 0.6549(11) 0.5168(11) 0.9154(10)
H2H H 0.7419(11) 0.5033(11) 0.9154(10)
H3H H 0.6899(11) 0.4561(11) 0.8621(10)
C3H C 0.64234(120) 0.56710(96) 0.7779(11)
H4H H 0.63231(120) 0.51860(96) 0.7564(11)
H5H H 0.64961(120) 0.60310(96) 0.7384(11)
H6H H 0.60056(120) 0.58210(96) 0.8086(11)
C4H C 0.7730(11) 0.53987(110) 0.78160(98)
H7H H 0.7653(11) 0.49073(110) 0.76070(98)
H8H H 0.8169(11) 0.53944(110) 0.81290(98)
H9H H 0.7797(11) 0.5755(11) 0.74160(98)
O2H O 0.78740(98) 0.62901(100) 0.98575(66)
C5H C 0.8543(11) 0.62217(100) 1.02450(82)
C6H C 0.8540(14) 0.5518(14) 1.0669(13)
H10H H 0.8969(14) 0.5360(14) 1.0956(13)
H11H H 0.8390(14) 0.5121(14) 1.0336(13)
H12H H 0.8134(14) 0.5636(14) 1.1004(13)
C7H C 0.8635(13) 0.6886(14) 1.0718(14)
H13H H 0.9100(13) 0.6963(14) 1.0981(14)
H14H H 0.8226(13) 0.6902(14) 1.1070(14)
H15H H 0.8571(13) 0.7275(14) 1.0350(14)
C8H C 0.9166(14) 0.6095(13) 0.9773(14)
H16H H 0.9167(14) 0.5612(13) 0.9535(14)
H17H H 0.9652(14) 0.6192(13) 0.9987(14)
H18H H 0.9052(14) 0.6475(13) 0.9408(14)
O3H O 0.65604(110) 0.66282(95) 0.97470(69)
C9H C 0.6025(13) 0.6813(12) 1.0249(12)
C10H C 0.5888(16) 0.6228(19) 1.0720(17)
H19H H 0.5562(16) 0.6358(19) 1.1130(17)
H20H H 0.6371(16) 0.6086(19) 1.0913(17)
H21H H 0.5676(16) 0.5815(19) 1.0445(17)
C11H C 0.6159(13) 0.7461(14) 1.0661(13)
H22H H 0.5831(13) 0.7555(14) 1.1080(13)
H23H H 0.6174(13) 0.7897(14) 1.0344(13)
H24H H 0.6655(13) 0.7353(14) 1.0843(13)
C12H C 0.5401(17) 0.6871(17) 0.9873(17)
H25H H 0.4952(17) 0.7070(17) 1.0097(17)
H26H H 0.5268(17) 0.6497(17) 0.9507(17)
H27H H 0.5674(17) 0.7269(17) 0.9633(17)
#END

data_CSD_CIF_GEWNAX
_audit_creation_date 1989-05-23
_audit_creation_method CSD-ConQuest-V1
_database_code_CSD GEWNAX
_chemical_formula_sum 'C6 H18 Cl3 Co1 N6 S3'
_chemical_formula_moiety
;
C6 H18 Co1 N6 S3 3+,3(Cl1 1-)
;
_journal_coden_Cambridge 9
_journal_volume 27
_journal_year 1988
_journal_page_first 3051
_journal_name_full 'Inorg.Chem. '
loop_
_publ_author_name
"E.Larsen"
"S.Larsen"
"G.Lunding"
_chemical_name_systematic
;
(-)~D~-fac-tris(Thioacetylhydrazide-N,S)-cobalt(iii) trichloride
;
_cell_volume   1729.296
_exptl_crystal_colour 'red'
_exptl_crystal_density_diffrn 1.674
_exptl_special_details
;
Averaged bond lengths are given

;
_diffrn_ambient_temperature ?
_diffrn_special_details
;
The study was carried out at room temperature,in the range 283-303K

;
#These two values have been output from a single CSD field.
_refine_ls_R_factor_gt 0.02
_refine_ls_wR_factor_gt 0.02
_symmetry_cell_setting cubic
_symmetry_space_group_name_H-M 'P 21 3'
_symmetry_Int_Tables_number 198
loop_
_symmetry_equiv_pos_site_id
_symmetry_equiv_pos_as_xyz
1 x,y,z
2 z,x,y
3 y,z,x
4 1/2+x,1/2-y,-z
5 1/2+z,1/2-x,-y
6 1/2+y,1/2-z,-x
7 -x,1/2+y,1/2-z
8 -z,1/2+x,1/2-y
9 -y,1/2+z,1/2-x
10 1/2-x,-y,1/2+z
11 1/2-z,-x,1/2+y
12 1/2-y,-z,1/2+x
_cell_length_a 12.003(3)
_cell_length_b 12.003(3)
_cell_length_c 12.003(3)
_cell_angle_alpha 90
_cell_angle_beta 90
_cell_angle_gamma 90
_cell_formula_units_Z 4
loop_
_atom_type_symbol
_atom_type_radius_bond
C 0.68
H 0.23
Cl 0.99
Co 1.33
N 0.68
S 1.02
loop_
_atom_site_label
_atom_site_type_symbol
_atom_site_fract_x
_atom_site_fract_y
_atom_site_fract_z
Co1 Co 0.04489(2) 0.04489 0.04489
S1 S 0.02641(5) 0.06239(5) -0.13766(5)
N1 N 0.0322(2) 0.2105(2) 0.0545(2)
N2 N 0.0260(2) 0.2624(2) -0.0524(2)
C1 C 0.0216(2) 0.2034(2) -0.1428(2)
C2 C 0.0147(3) 0.2612(3) -0.2524(3)
Cl1 Cl 0.22693(6) 0.22693 0.22693
Cl2 Cl 0.47818(5) 0.47818 0.47818
Cl3 Cl 0.32232(6) 0.17768 0.82232
H1 H -0.034(3) 0.238(3) 0.092(3)
H2 H 0.0856(3) 0.229(3) 0.080(4)
H3 H 0.026(3) 0.336(4) -0.054(3)
H4 H -0.026(3) 0.338(3) -0.248(3)
H5 H -0.034(3) 0.228(3) -0.301(3)
H6 H 0.077(4) 0.274(3) -0.270(3)
S1A S -0.13766(5) 0.02641(5) 0.06239(5)
S1B S 0.06239(5) -0.13766(5) 0.02641(5)
N1A N 0.0545(2) 0.0322(2) 0.2105(2)
N1B N 0.2105(2) 0.0545(2) 0.0322(2)
C1A C -0.1428(2) 0.0216(2) 0.2034(2)
C1B C 0.2034(2) -0.1428(2) 0.0216(2)
N2A N -0.0524(2) 0.0260(2) 0.2624(2)
H1A H 0.092(3) -0.034(3) 0.238(3)
H2A H 0.0800(3) 0.0856(30) 0.229(4)
N2B N 0.2624(2) -0.0524(2) 0.0260(2)
H1B H 0.238(3) 0.092(3) -0.034(3)
H2B H 0.2290(3) 0.080(3) 0.0856(40)
C2A C -0.2524(3) 0.0147(3) 0.2612(3)
C2B C 0.2612(3) -0.2524(3) 0.0147(3)
H3A H -0.054(3) 0.026(4) 0.336(3)
H3B H 0.336(3) -0.054(4) 0.026(3)
H4A H -0.248(3) -0.026(3) 0.338(3)
H5A H -0.301(3) -0.034(3) 0.228(3)
H6A H -0.270(4) 0.077(3) 0.274(3)
H4B H 0.338(3) -0.248(3) -0.026(3)
H5B H 0.228(3) -0.301(3) -0.034(3)
H6B H 0.274(4) -0.270(3) 0.077(3)
#END

data_CSD_CIF_GEYPAB
_audit_creation_date 1999-04-16
_audit_creation_method CSD-ConQuest-V1
_database_code_CSD GEYPAB
_chemical_formula_sum 'C32 Co8 O44 Si8'
_chemical_formula_moiety
;
C32 Co8 O44 Si8
;
_journal_coden_Cambridge 579
_journal_volume 17
_journal_year 1998
_journal_page_first 2930
_journal_name_full 'Organometallics '
loop_
_publ_author_name
"M.Rattay"
"D.Fenske"
"P.Jutzi"
_chemical_name_systematic
;
octakis(Tetracarbonyl-cobalt)octasilasesquioxane
;
_cell_volume   6149.609
_exptl_crystal_colour 'colorless'
_exptl_crystal_density_diffrn 1.928
_exptl_special_details
;
Space group is P213 not P23/1 as published

;
_exptl_crystal_description 'prisms'
_diffrn_ambient_temperature 190
#These two values have been output from a single CSD field.
_refine_ls_R_factor_gt 0.0413
_refine_ls_wR_factor_gt 0.0413
_symmetry_cell_setting cubic
_symmetry_space_group_name_H-M 'P 21 3'
_symmetry_Int_Tables_number 198
loop_
_symmetry_equiv_pos_site_id
_symmetry_equiv_pos_as_xyz
1 x,y,z
2 1/2-x,-y,1/2+z
3 1/2+x,1/2-y,-z
4 z,x,y
5 -x,1/2+y,1/2-z
6 1/2-z,-x,1/2+y
7 1/2+z,1/2-x,-y
8 -z,1/2+x,1/2-y
9 y,z,x
10 1/2+y,1/2-z,-x
11 -y,1/2+z,1/2-x
12 1/2-y,-z,1/2+x
_cell_length_a 18.321(2)
_cell_length_b 18.321(2)
_cell_length_c 18.321(2)
_cell_angle_alpha 90
_cell_angle_beta 90
_cell_angle_gamma 90
_cell_formula_units_Z 4
loop_
_atom_type_symbol
_atom_type_radius_bond
C 0.68
Co 1.33
O 0.68
Si 1.20
loop_
_atom_site_label
_atom_site_type_symbol
_atom_site_fract_x
_atom_site_fract_y
_atom_site_fract_z
Co1 Co 0.9833(1) 0.1967(1) 0.7895(1)
Co2 Co 1.1843(1) 0.2925(1) 1.0099(1)
Co3 Co 1.4054(1) 0.0946(1) 0.9054(1)
Co4 Co 1.0889(1) 0.4111(1) 0.5889(1)
Si1 Si 1.2146(1) 0.2765(1) 0.8898(1)
Si2 Si 1.1611(1) 0.3389(1) 0.6611(1)
Si3 Si 1.1046(1) 0.2190(1) 0.7697(1)
Si4 Si 1.3335(1) 0.1665(1) 0.8335(1)
C1 C 0.9754(3) 0.2936(4) 0.7874(4)
O1 O 0.9710(3) 0.3570(3) 0.7870(4)
C2 C 0.8859(4) 0.1779(4) 0.8020(4)
O2 O 0.8261(3) 0.1657(3) 0.8096(3)
C3 C 1.0157(4) 0.1564(4) 0.8717(4)
O3 O 1.0356(4) 0.1327(5) 0.9257(4)
C4 C 0.9914(3) 0.1478(4) 0.7045(4)
O4 O 0.9949(3) 0.1158(3) 0.6510(3)
C5 C 1.2695(4) 0.3423(3) 1.0137(4)
O5 O 1.3219(3) 0.3765(3) 1.0161(3)
C6 C 1.1596(5) 0.3049(4) 1.1052(5)
O6 O 1.1448(4) 0.3111(3) 1.1645(4)
C7 C 1.1868(4) 0.1941(3) 1.0134(4)
O7 O 1.1889(3) 0.1327(3) 1.0169(4)
C8 C 1.1068(4) 0.3348(4) 0.9710(4)
O8 O 1.0546(4) 0.3604(4) 0.9448(3)
C9 C 1.4634(4) 0.0366(4) 0.9634(4)
O9 O 1.4982(3) 0.0018(3) 0.9982(3)
C10 C 1.3250(5) 0.0381(4) 0.9110(4)
O10 O 1.2749(4) 0.0007(4) 0.9133(4)
C11 C 1.0305(4) 0.4695(4) 0.5305(4)
O11 O 0.9956(3) 0.5044(3) 0.4956(3)
C12 C 1.1723(4) 0.4275(4) 0.5393(4)
O12 O 1.2246(3) 0.4374(3) 0.5072(3)
O13 O 1.1128(2) 0.2799(2) 0.7055(2)
O14 O 1.2780(2) 0.2160(2) 0.8829(2)
O15 O 1.1448(2) 0.2495(2) 0.8429(2)
O16 O 1.1481(2) 0.1457(2) 0.7439(2)
C12F C 1.0393(4) 0.3277(4) 0.5725(4)
O12F O 1.0072(3) 0.2754(3) 0.5626(3)
C12K C 1.0725(4) 0.4607(4) 0.6723(4)
O12K O 1.0626(3) 0.4928(3) 0.7246(3)
O13F O 1.2055(2) 0.3872(2) 0.7201(2)
Si3F Si 1.2697(1) 0.3954(1) 0.7810(1)
Co1F Co 1.2895(1) 0.5167(1) 0.8033(1)
C1F C 1.2874(3) 0.5246(4) 0.7064(4)
O1F O 1.2870(3) 0.5290(3) 0.6430(4)
C2F C 1.3020(4) 0.6141(4) 0.8221(4)
O2F O 1.3096(3) 0.6739(3) 0.8343(3)
C3F C 1.3717(4) 0.4843(4) 0.8436(4)
O3F O 1.4257(4) 0.4644(5) 0.8673(4)
C4F C 1.2045(3) 0.5086(4) 0.8522(4)
O4F O 1.1510(3) 0.5051(3) 0.8842(3)
O15F O 1.3429(2) 0.3552(2) 0.7505(2)
Si1F Si 1.3898(1) 0.2854(1) 0.7235(1)
Co2F Co 1.5099(1) 0.3157(1) 0.7075(1)
C5F C 1.5137(4) 0.2305(3) 0.6577(4)
O5F O 1.5161(3) 0.1781(3) 0.6235(3)
C6F C 1.6052(5) 0.3404(4) 0.6951(5)
O6F O 1.6645(4) 0.3552(3) 0.6889(4)
C7F C 1.5134(4) 0.3132(3) 0.8059(4)
O7F O 1.5169(3) 0.3111(3) 0.8673(4)
C8F C 1.4710(4) 0.3932(4) 0.6652(4)
O8F O 1.4448(4) 0.4454(4) 0.6396(3)
O14F O 1.3829(2) 0.2220(2) 0.7840(2)
C10F C 1.4110(5) 0.1750(4) 0.9619(4)
O10F O 1.4133(4) 0.2251(4) 0.9993(4)
C10K C 1.4619(5) 0.0890(4) 0.8250(4)
O10K O 1.4993(4) 0.0867(4) 0.7749(4)
O14K O 1.2840(2) 0.1171(2) 0.7780(2)
Si1K Si 1.2235(1) 0.1102(1) 0.7146(1)
Co2K Co 1.2075(1) -0.0099(1) 0.6843(1)
C5K C 1.1577(4) -0.0137(3) 0.7695(4)
O5K O 1.1235(3) -0.0161(3) 0.8219(3)
C6K C 1.1951(5) -0.1052(4) 0.6596(5)
O6K O 1.1889(4) -0.1645(3) 0.6448(4)
C7K C 1.3059(4) -0.0134(3) 0.6868(4)
O7K O 1.3673(3) -0.0169(3) 0.6889(4)
C8K C 1.1652(4) 0.0290(4) 0.6068(4)
O8K O 1.1396(4) 0.0552(4) 0.5546(3)
O15K O 1.2505(2) 0.1571(2) 0.6448(2)
Si3K Si 1.2810(1) 0.2303(1) 0.6046(1)
Co1K Co 1.3033(1) 0.2105(1) 0.4833(1)
C1K C 1.2064(3) 0.2126(4) 0.4754(4)
O1K O 1.1430(3) 0.2130(3) 0.4710(4)
C2K C 1.3221(4) 0.1980(4) 0.3859(4)
O2K O 1.3343(3) 0.1904(3) 0.3261(3)
C3K C 1.3436(4) 0.1283(4) 0.5157(4)
O3K O 1.3673(4) 0.0743(5) 0.5356(4)
C4K C 1.3522(3) 0.2955(4) 0.4914(4)
O4K O 1.3842(3) 0.3490(3) 0.4949(3)
O13K O 1.2201(2) 0.2945(2) 0.6128(2)
O16K O 1.3543(2) 0.2561(2) 0.6481(2)
O16F O 1.2439(2) 0.3519(2) 0.8543(2)
#END

data_CSD_CIF_GIHWOK
_audit_creation_date 2007-12-14
_audit_creation_method CSD-ConQuest-V1
_database_code_CSD GIHWOK
_database_code_depnum_ccdc_archive 'CCDC 659397'
_chemical_formula_sum 'C18 H18 Cl2 Cu1 N4'
_chemical_formula_moiety
;
C18 H18 Cl1 Cu1 N4 1+,Cl1 1-
;
_journal_coden_Cambridge 9
_journal_volume 46
_journal_year 2007
_journal_page_first 5844
_journal_name_full 'Inorg.Chem. '
loop_
_publ_author_name
"W.T.Eckenhoff"
"T.Pintauer"
_chemical_name_systematic
;
Chloro-(tris(2-pyridylmethyl)amine)-copper(ii) chloride
;
_cell_volume   1913.875
_exptl_crystal_colour 'green'
_exptl_crystal_density_diffrn 1.474
_exptl_special_details
;
P213 polymorph

;
_exptl_crystal_description 'rhomboids'
_diffrn_ambient_temperature 150
#These two values have been output from a single CSD field.
_refine_ls_R_factor_gt 0.017
_refine_ls_wR_factor_gt 0.017
_symmetry_cell_setting cubic
_symmetry_space_group_name_H-M 'P 21 3'
_symmetry_Int_Tables_number 198
loop_
_symmetry_equiv_pos_site_id
_symmetry_equiv_pos_as_xyz
1 x,y,z
2 1/2-x,-y,1/2+z
3 -x,1/2+y,1/2-z
4 1/2+x,1/2-y,-z
5 z,x,y
6 1/2+z,1/2-x,-y
7 1/2-z,-x,1/2+y
8 -z,1/2+x,1/2-y
9 y,z,x
10 -y,1/2+z,1/2-x
11 1/2+y,1/2-z,-x
12 1/2-y,-z,1/2+x
_cell_length_a 12.4157(1)
_cell_length_b 12.4157(1)
_cell_length_c 12.4157(1)
_cell_angle_alpha 90
_cell_angle_beta 90
_cell_angle_gamma 90
_cell_formula_units_Z 4
loop_
_atom_type_symbol
_atom_type_radius_bond
C 0.68
H 0.23
Cl 0.99
Cu 1.52
N 0.68
loop_
_atom_site_label
_atom_site_type_symbol
_atom_site_fract_x
_atom_site_fract_y
_atom_site_fract_z
C1 C 0.83570(8) 0.47557(8) 0.02500(8)
H1 H 0.80930 0.43400 -0.03570
H2 H 0.87520 0.53700 -0.00270
Cu1 Cu 0.812686(9) 0.312686(9) 0.187314(9)
Cl1 Cl 0.708668(18) 0.208668(18) 0.291333(18)
N1 N 0.90793(6) 0.40793(6) 0.09207(6)
N2 N 0.71054(6) 0.44387(6) 0.16961(6)
C2 C 0.69161(9) 0.61170(8) 0.07628(8)
H3 H 0.71580 0.65890 0.02340
C3 C 0.56958(9) 0.56573(8) 0.21832(9)
H4 H 0.51040 0.58150 0.26150
C4 C 0.74257(8) 0.51361(8) 0.09235(8)
C5 C 0.62499(8) 0.46917(8) 0.23082(8)
H5 H 0.60210 0.42070 0.28310
C6 C 0.60384(9) 0.63842(9) 0.14032(9)
H6 H 0.56860 0.70390 0.13120
Cl2 Cl 0.080044(18) 0.580044(18) 0.919956(18)
C1J C 0.97557(8) 0.47500(8) 0.16430(8)
C1G C 0.97500(8) 0.33570(8) 0.02443(8)
H1J H 0.93400 0.53570 0.19070
H1G H 1.03570 0.30930 0.06600
H2J H 1.03700 0.50270 0.12480
H2G H 1.00270 0.37520 -0.03700
N2J N 0.94387(6) 0.33039(6) 0.28946(6)
N2G N 0.83039(6) 0.21054(6) 0.05613(6)
C2G C 0.92372(9) 0.19161(8) -0.11170(8)
C2J C 1.11170(9) 0.42372(8) 0.30839(8)
H3G H 0.97660 0.21580 -0.15890
H3J H 1.15890 0.47660 0.28420
C3G C 0.78168(9) 0.06958(8) -0.06573(9)
C3J C 1.06573(9) 0.28168(8) 0.43042(9)
H4G H 0.73850 0.01040 -0.08150
H4J H 1.08150 0.23850 0.48960
C4J C 1.01361(8) 0.40765(8) 0.25743(8)
C4G C 0.90765(8) 0.24257(8) -0.01361(8)
C5G C 0.76918(8) 0.12499(8) 0.03083(8)
C5J C 0.96917(8) 0.26918(8) 0.37501(8)
H5G H 0.71690 0.10210 0.07930
H5J H 0.92070 0.21690 0.39790
C6G C 0.85968(9) 0.10384(9) -0.13842(9)
C6J C 1.13842(9) 0.35968(9) 0.39616(9)
H6G H 0.86880 0.06860 -0.20390
H6J H 1.20390 0.36880 0.43140
#END

data_CSD_CIF_GINJEU
_audit_creation_date 2013-09-13
_audit_creation_method CSD-ConQuest-V1
_database_code_CSD GINJEU
_database_code_depnum_ccdc_archive 'CCDC 912033'
_chemical_formula_sum 'C25 H105 N24 Ni5 O73 P2 W19'
_chemical_formula_moiety
;
C12 H54 N12 Ni3 O7 W1,O62 P2 W18 3-,2(C6 H24 N6 Ni1 2+),C1 H1 O3 1-,H2 O1
;
_journal_coden_Cambridge 1500
_journal_volume 3
_journal_year 2013
_journal_page_first 20829
_journal_name_full 'RSC Advances '
loop_
_publ_author_name
"Zhu-Jun Liu"
"Shuang Yao"
"Zhi-Ming Zhang"
"En-Bo Wang"
_chemical_name_systematic
;
bis(tris(ethane-1,2-diamine)-nickel(ii)) 
bis(phosphato)-hexatriacontakis(\m~2~-oxo)-octadecaoxo-octadeca-tungsten 
hydrogen carbonate 
tris(\m~2~-oxo)-hexakis(ethane-1,2diamine)-triaqua-oxo-tri-nickel-tungsten 
monhydrate
;
_cell_volume   9931.997
_exptl_crystal_colour 'dark blue'
_exptl_crystal_density_diffrn 3.851
_exptl_crystal_description 'block'
_diffrn_ambient_temperature 296
#These two values have been output from a single CSD field.
_refine_ls_R_factor_gt 0.0377
_refine_ls_wR_factor_gt 0.0377
_symmetry_cell_setting cubic
_symmetry_space_group_name_H-M 'P 21 3'
_symmetry_Int_Tables_number 198
loop_
_symmetry_equiv_pos_site_id
_symmetry_equiv_pos_as_xyz
1 x,y,z
2 1/2-x,-y,1/2+z
3 -x,1/2+y,1/2-z
4 1/2+x,1/2-y,-z
5 z,x,y
6 1/2+z,1/2-x,-y
7 1/2-z,-x,1/2+y
8 -z,1/2+x,1/2-y
9 y,z,x
10 -y,1/2+z,1/2-x
11 1/2+y,1/2-z,-x
12 1/2-y,-z,1/2+x
_cell_length_a 21.4954(13)
_cell_length_b 21.4954(13)
_cell_length_c 21.4954(13)
_cell_angle_alpha 90
_cell_angle_beta 90
_cell_angle_gamma 90
_cell_formula_units_Z 4
loop_
_atom_type_symbol
_atom_type_radius_bond
C 0.68
H 0.23
N 0.68
Ni 1.24
O 0.68
P 1.05
W 1.62
loop_
_atom_site_label
_atom_site_type_symbol
_atom_site_fract_x
_atom_site_fract_y
_atom_site_fract_z
W1 W 0.55920(4) 0.58512(3) 1.17060(3)
W2 W 0.65935(4) 0.48726(4) 1.06660(4)
W3 W 0.42609(4) 0.69468(4) 1.17337(4)
W4 W 0.53430(4) 0.69261(4) 1.03952(4)
W5 W 0.63395(4) 0.59407(4) 0.93582(4)
W6 W 0.68981(3) 0.43330(4) 0.90521(4)
P1 P 0.43117(18) 0.56883(18) 1.06883(18)
P2 P 0.5382(2) 0.4618(2) 0.9618(2)
O1 O 0.7304(6) 0.5000(6) 1.0996(6)
O2 O 0.6763(6) 0.3458(6) 0.9196(6)
O3 O 0.4713(6) 0.7155(5) 1.1016(6)
O4 O 0.5664(6) 0.6398(5) 1.1008(6)
O5 O 0.4800(5) 0.5383(6) 1.1115(5)
O6 O 0.3882(5) 0.6118(5) 1.1118(5)
O7 O 0.6110(5) 0.5281(5) 1.1283(5)
O8 O 0.6418(6) 0.4087(6) 1.1068(6)
O9 O 0.5236(6) 0.5212(6) 1.2217(5)
O10 O 0.5829(6) 0.6509(6) 0.9790(5)
O11 O 0.5808(5) 0.4192(5) 0.9192(5)
O12 O 0.6502(6) 0.5564(6) 1.0142(6)
O13 O 0.6119(6) 0.6157(6) 1.2217(6)
O14 O 0.3708(7) 0.6470(6) 1.2258(5)
O15 O 0.5644(6) 0.4554(5) 1.0276(5)
O16 O 0.4900(5) 0.6395(5) 1.1956(6)
O17 O 0.6890(6) 0.4421(5) 0.9929(6)
O18 O 0.6972(7) 0.6403(7) 0.9241(7)
O19 O 0.7677(6) 0.4326(6) 0.8878(6)
O20 O 0.5797(6) 0.7584(6) 1.0491(7)
O21 O 0.4399(7) 0.7573(6) 1.2210(6)
O22 O 0.6717(6) 0.5166(5) 0.9010(6)
W7 W 0.99307(4) 0.00693(4) 0.50693(4)
Ni1 Ni 1.10257(13) 0.08682(13) 0.60900(12)
O23 O 1.0284(8) 0.1331(9) 0.6579(8)
O24 O 1.0386(10) 0.0285(9) 0.5708(10)
O25 O 1.0378(13) -0.0378(13) 0.4622(13)
C1 C 1.1684(13) 0.0901(12) 0.4906(14)
H1 H 1.14360 0.06610 0.46150
H2 H 1.20960 0.09450 0.47280
C2 C 1.167(3) 0.098(2) 0.725(2)
H3 H 1.20530 0.10740 0.74640
H4 H 1.13310 0.11350 0.75050
C3 C 1.1616(13) 0.0367(13) 0.7224(12)
H5 H 1.14800 0.02140 0.76260
H6 H 1.20200 0.01870 0.71360
C4 C 1.1399(16) 0.1538(16) 0.4970(17)
H7 H 1.17170 0.18320 0.50970
H8 H 1.12390 0.16700 0.45690
N1 N 1.1176(9) 0.0167(9) 0.6750(8)
H9 H 1.08130 0.00660 0.69310
H10 H 1.13240 -0.01750 0.65580
N2 N 1.0918(9) 0.1540(8) 0.5405(8)
H11 H 1.05540 0.14750 0.52070
H12 H 1.08990 0.19170 0.55860
N3 N 1.1735(9) 0.0554(8) 0.5482(9)
H13 H 1.21110 0.06180 0.56550
H14 H 1.16910 0.01450 0.54080
N4 N 1.1666(12) 0.1365(12) 0.6617(11)
H15 H 1.20440 0.13670 0.64360
H16 H 1.15400 0.17600 0.66790
Ni2 Ni 0.86313(12) 0.36313(12) 1.13687(12)
C5 C 0.9487(10) 0.2676(8) 1.1765(10)
H17 H 0.95090 0.28210 1.21920
H18 H 0.96520 0.22560 1.17520
C6 C 0.9874(9) 0.3083(11) 1.1369(12)
H19 H 0.98630 0.29430 1.09390
H20 H 1.03020 0.30810 1.15100
N5 N 0.9601(9) 0.3717(9) 1.1426(10)
H21 H 0.97420 0.39640 1.11180
H22 H 0.97090 0.38880 1.17920
N6 N 0.8823(9) 0.2668(8) 1.1559(9)
H23 H 0.85730 0.25220 1.18610
H24 H 0.87740 0.24340 1.12160
Ni3 Ni 0.75659(14) 0.24341(14) 0.74341(14)
C7 C 0.8749(12) 0.2272(12) 0.8082(11)
H25 H 0.91850 0.23720 0.81410
H26 H 0.86960 0.18290 0.81490
C8 C 0.8351(15) 0.2636(13) 0.8558(11)
H27 H 0.84570 0.25090 0.89780
H28 H 0.84300 0.30790 0.85190
N7 N 0.7688(9) 0.2503(9) 0.8432(9)
H29 H 0.74480 0.28100 0.85850
H30 H 0.75760 0.21440 0.86160
N8 N 0.8563(10) 0.2431(10) 0.7440(11)
H31 H 0.87100 0.21460 0.71700
H32 H 0.87110 0.28070 0.73330
O26 O 0.8651(14) 0.1349(14) 0.6349(14)
C9 C 1.244(2) 0.256(2) 0.744(2)
O27 O 1.199(4) 0.235(5) 0.799(4)
O5F O 0.3885(5) 0.5200(6) 1.0383(5)
O5I O 0.4617(5) 0.6115(6) 1.0200(5)
O15F O 0.4724(6) 0.4356(5) 0.9554(5)
O15I O 0.5446(6) 0.5276(5) 0.9356(5)
W1F W 0.32940(4) 0.44080(3) 1.08512(3)
W2F W 0.43340(4) 0.34065(4) 0.98726(4)
W3F W 0.32663(4) 0.57391(4) 1.19468(4)
W4F W 0.46048(4) 0.46570(4) 1.19261(4)
W5F W 0.56418(4) 0.36605(4) 1.09407(4)
W6F W 0.59479(3) 0.31019(4) 0.93330(4)
O1F O 0.4004(6) 0.2696(6) 1.0000(6)
O2F O 0.5804(6) 0.3237(6) 0.8458(6)
O3F O 0.3984(6) 0.5287(5) 1.2155(6)
O4F O 0.3992(6) 0.4336(5) 1.1398(6)
O7F O 0.3717(5) 0.3890(5) 1.0281(5)
O8F O 0.3932(6) 0.3582(6) 0.9087(6)
O9F O 0.2783(6) 0.4764(6) 1.0212(5)
O10F O 0.5210(6) 0.4171(6) 1.1509(5)
O12F O 0.4858(6) 0.3498(6) 1.0564(6)
O13F O 0.2783(6) 0.3881(6) 1.1157(6)
O14F O 0.2742(7) 0.6292(6) 1.1470(5)
O16F O 0.3044(5) 0.5100(5) 1.1395(6)
O17F O 0.5071(6) 0.3110(5) 0.9421(6)
O18F O 0.5759(7) 0.3028(7) 1.1403(7)
O19F O 0.6122(6) 0.2323(6) 0.9326(6)
O20F O 0.4509(6) 0.4203(6) 1.2584(7)
O21F O 0.2790(7) 0.5601(6) 1.2573(6)
O22F O 0.5990(6) 0.3283(5) 1.0166(6)
W1I W 0.41488(4) 0.67060(3) 0.94080(3)
W2I W 0.51274(4) 0.56660(4) 0.84065(4)
W3I W 0.30532(4) 0.67337(4) 1.07391(4)
W4I W 0.30739(4) 0.53952(4) 0.96570(4)
W5I W 0.40593(4) 0.43582(4) 0.86605(4)
W6I W 0.56670(3) 0.40521(4) 0.81019(4)
O1I O 0.5000(6) 0.5996(6) 0.7696(6)
O2I O 0.6542(6) 0.4196(6) 0.8237(6)
O3I O 0.2845(6) 0.6016(5) 1.0287(6)
O4I O 0.3602(6) 0.6008(5) 0.9336(6)
O7I O 0.4719(5) 0.6283(5) 0.8890(5)
O8I O 0.5913(6) 0.6068(6) 0.8582(6)
O9I O 0.4788(6) 0.7217(6) 0.9764(5)
O10I O 0.3491(6) 0.4790(6) 0.9171(5)
O12I O 0.4436(6) 0.5142(6) 0.8498(6)
O13I O 0.3843(6) 0.7217(6) 0.8881(6)
O14I O 0.3530(7) 0.7258(6) 1.1292(5)
O16I O 0.3605(5) 0.6956(5) 1.0100(6)
O17I O 0.5579(6) 0.4929(5) 0.8110(6)
O18I O 0.3597(7) 0.4241(7) 0.8028(7)
O19I O 0.5674(6) 0.3878(6) 0.7323(6)
O20I O 0.2416(6) 0.5491(6) 0.9203(7)
O21I O 0.2427(7) 0.7210(6) 1.0601(6)
O22I O 0.4834(6) 0.4010(5) 0.8283(6)
Ni1F Ni 0.89100(13) -0.10257(13) 0.58682(12)
O23F O 0.8421(8) -0.0284(9) 0.6331(8)
O24F O 0.9292(10) -0.0386(9) 0.5285(10)
C1F C 1.0094(13) -0.1684(12) 0.5901(14)
H1F H 1.03850 -0.14360 0.56610
H2F H 1.02720 -0.20960 0.59450
C2F C 0.775(3) -0.167(2) 0.598(2)
H3F H 0.75360 -0.20530 0.60740
H4F H 0.74950 -0.13310 0.61350
C3F C 0.7776(13) -0.1616(13) 0.5367(12)
H5F H 0.73740 -0.14800 0.52140
H6F H 0.78640 -0.20200 0.51870
C4F C 1.0030(16) -0.1399(16) 0.6538(17)
H7F H 0.99030 -0.17170 0.68320
H8F H 1.04310 -0.12390 0.66700
N1F N 0.8250(9) -0.1176(9) 0.5167(8)
H9F H 0.80690 -0.08130 0.50660
H10F H 0.84420 -0.13240 0.48250
N2F N 0.9595(9) -0.0918(8) 0.6540(8)
H11F H 0.97930 -0.05540 0.64750
H12F H 0.94140 -0.08990 0.69170
N3F N 0.9518(9) -0.1735(8) 0.5554(9)
H13F H 0.93450 -0.21110 0.56180
H14F H 0.95920 -0.16910 0.51450
N4F N 0.8383(12) -0.1666(12) 0.6365(11)
H15F H 0.85640 -0.20440 0.63670
H16F H 0.83210 -0.15400 0.67600
Ni1I Ni 0.91318(13) 0.10900(13) 0.39743(12)
O23I O 0.8669(8) 0.1579(9) 0.4716(8)
O24I O 0.9715(10) 0.0708(9) 0.4614(10)
C1I C 0.9099(13) -0.0094(12) 0.3316(14)
H1I H 0.93390 -0.03850 0.35640
H2I H 0.90550 -0.02720 0.29040
C2I C 0.902(3) 0.225(2) 0.333(2)
H3I H 0.89260 0.24640 0.29470
H4I H 0.88650 0.25050 0.36690
C3I C 0.9633(13) 0.2224(13) 0.3384(12)
H5I H 0.97860 0.26260 0.35200
H6I H 0.98130 0.21360 0.29800
C4I C 0.8462(16) -0.0030(16) 0.3601(17)
H7I H 0.81680 0.00970 0.32830
H8I H 0.83300 -0.04310 0.37610
N1I N 0.9833(9) 0.1750(9) 0.3824(8)
H9I H 0.99340 0.19310 0.41870
H10I H 1.01750 0.15580 0.36760
N2I N 0.8460(9) 0.0405(8) 0.4082(8)
H11I H 0.85250 0.02070 0.44460
H12I H 0.80830 0.05860 0.41010
N3I N 0.9446(9) 0.0482(8) 0.3265(9)
H13I H 0.93820 0.06550 0.28890
H14I H 0.98550 0.04080 0.33090
N4I N 0.8635(12) 0.1617(12) 0.3334(11)
H15I H 0.86330 0.14360 0.29560
H16I H 0.82400 0.16790 0.34600
C5G C 0.8235(10) 0.4487(8) 1.2324(10)
H17G H 0.78080 0.45090 1.21790
H18G H 0.82480 0.46520 1.27440
C6G C 0.8631(9) 0.4874(11) 1.1917(12)
H19G H 0.90610 0.48630 1.20570
H20G H 0.84900 0.53020 1.19190
N5G N 0.8574(9) 0.4601(9) 1.1283(10)
H21G H 0.88820 0.47420 1.10360
H22G H 0.82080 0.47090 1.11120
N6G N 0.8441(9) 0.3823(8) 1.2332(9)
H23G H 0.81390 0.35730 1.24780
H24G H 0.87840 0.37740 1.25660
C5J C 0.7676(10) 0.3235(8) 1.0513(10)
H17J H 0.78210 0.28080 1.04910
H18J H 0.72560 0.32480 1.03480
C6J C 0.8083(9) 0.3631(11) 1.0126(12)
H19J H 0.79430 0.40610 1.01370
H20J H 0.80810 0.34900 0.96980
N5J N 0.8717(9) 0.3574(9) 1.0399(10)
H21J H 0.89640 0.38820 1.02580
H22J H 0.88880 0.32080 1.02910
N6J N 0.7668(9) 0.3441(8) 1.1177(9)
H23J H 0.75220 0.31390 1.14270
H24J H 0.74340 0.37840 1.12260
C7F C 0.6918(12) 0.1251(12) 0.7272(11)
H25F H 0.68590 0.08150 0.73720
H26F H 0.68510 0.13040 0.68290
C8F C 0.6442(15) 0.1649(13) 0.7636(11)
H27F H 0.60220 0.15430 0.75090
H28F H 0.64810 0.15700 0.80790
N7F N 0.6568(9) 0.2312(9) 0.7503(9)
H29F H 0.64150 0.25520 0.78100
H30F H 0.63840 0.24240 0.71440
N8F N 0.756(1) 0.1437(10) 0.7431(11)
H31F H 0.78300 0.12900 0.71460
H32F H 0.76670 0.12890 0.78070
C7I C 0.7728(12) 0.3082(12) 0.6251(11)
H25I H 0.76280 0.31410 0.58150
H26I H 0.81710 0.31490 0.63040
C8I C 0.7364(15) 0.3558(13) 0.6649(11)
H27I H 0.74910 0.39780 0.65430
H28I H 0.69210 0.35190 0.65700
N7I N 0.7497(9) 0.3432(9) 0.7312(9)
H29I H 0.71900 0.35850 0.75520
H30I H 0.78560 0.36160 0.74240
N8I N 0.7569(10) 0.244(1) 0.6437(11)
H31I H 0.78540 0.21700 0.62900
H32I H 0.71930 0.23330 0.62890
O27E O 1.299(4) 0.301(5) 0.765(4)
O27K O 1.265(4) 0.201(5) 0.699(4)
#END

data_CSD_CIF_GOQXES
_audit_creation_date 2019-10-11
_audit_creation_method CSD-ConQuest-V1
_database_code_CSD GOQXES
_database_code_depnum_ccdc_archive 'CCDC 1833119'
_chemical_formula_sum 'C21 H16 F3 N1 Np1 O8'
_chemical_formula_moiety
;
C21 H12 F3 Np1 O8 1-,H4 N1 1+
;
_journal_coden_Cambridge 513
_journal_volume 61
_journal_year 2019
_journal_page_first 293
_journal_name_full 'Radiokhimiya(Russ.)(Radiochem.) '
loop_
_publ_author_name
"V.N.Serezhkin"
"M.S.Grigor'ev"
"A.M.Fedoseev"
"N.A.Budantseva"
"L.B.Serezhkina"
_chemical_name_systematic
;
ammonium tris(2-fluorobenzoato)-dioxo-neptunium(vi)
;
_cell_volume   2244.643
_exptl_crystal_density_diffrn 2.084
_diffrn_ambient_temperature 100
#These two values have been output from a single CSD field.
_refine_ls_R_factor_gt 0.0202
_refine_ls_wR_factor_gt 0.0202
_symmetry_cell_setting cubic
_symmetry_space_group_name_H-M 'P 21 3'
_symmetry_Int_Tables_number 198
loop_
_symmetry_equiv_pos_site_id
_symmetry_equiv_pos_as_xyz
1 x,y,z
2 1/2-x,-y,1/2+z
3 -x,1/2+y,1/2-z
4 1/2+x,1/2-y,-z
5 z,x,y
6 1/2+z,1/2-x,-y
7 1/2-z,-x,1/2+y
8 -z,1/2+x,1/2-y
9 y,z,x
10 -y,1/2+z,1/2-x
11 1/2+y,1/2-z,-x
12 1/2-y,-z,1/2+x
_cell_length_a 13.0933(2)
_cell_length_b 13.0933(2)
_cell_length_c 13.0933(2)
_cell_angle_alpha 90
_cell_angle_beta 90
_cell_angle_gamma 90
_cell_formula_units_Z 4
loop_
_atom_type_symbol
_atom_type_radius_bond
C 0.68
H 0.23
F 0.64
N 0.68
Np 1.90
O 0.68
loop_
_atom_site_label
_atom_site_type_symbol
_atom_site_fract_x
_atom_site_fract_y
_atom_site_fract_z
Np1 Np 0.41270(2) 0.58730(2) 1.08730(2)
F1 F 0.2941(2) 0.8585(2) 0.8307(2)
O1 O 0.4898(2) 0.5102(2) 1.0102(2)
O2 O 0.3354(2) 0.6646(2) 1.1646(2)
O3 O 0.3670(2) 0.6936(2) 0.9389(2)
O4 O 0.5069(2) 0.7357(3) 1.0200(2)
C1 C 0.4687(3) 0.8308(3) 0.8702(3)
C2 C 0.3939(3) 0.8833(3) 0.8170(3)
C3 C 0.4150(4) 0.9611(3) 0.7501(3)
H1 H 0.36160 0.99720 0.71690
C4 C 0.5172(4) 0.9859(4) 0.7324(4)
H2 H 0.53390 1.03970 0.68660
C5 C 0.5948(4) 0.9322(3) 0.7814(3)
H3 H 0.66430 0.94700 0.76670
C6 C 0.5703(3) 0.8571(3) 0.8517(3)
H4 H 0.62330 0.82310 0.88770
C7 C 0.4452(3) 0.7497(3) 0.9463(3)
N1 N 1.1701(3) 0.6701(3) 0.8299(3)
H5 H 1.1322(18) 0.6322(18) 0.8678(18)
H6 H 1.230(3) 0.678(4) 0.857(4)
F1F F 0.6693(2) 0.7059(2) 1.3585(2)
O3F O 0.5611(2) 0.6330(2) 1.1936(2)
O4F O 0.4800(2) 0.4931(3) 1.2357(2)
C1F C 0.6298(3) 0.5313(3) 1.3308(3)
C2F C 0.6830(3) 0.6061(3) 1.3833(3)
C3F C 0.7499(4) 0.5850(3) 1.4611(3)
H1F H 0.78310 0.63840 1.49720
C4F C 0.7676(4) 0.4828(4) 1.4859(4)
H2F H 0.81340 0.46610 1.53970
C5F C 0.7186(4) 0.4052(3) 1.4322(3)
H3F H 0.73330 0.33570 1.44700
C6F C 0.6483(3) 0.4297(3) 1.3571(3)
H4F H 0.61230 0.37670 1.32310
C7F C 0.5537(3) 0.5548(3) 1.2497(3)
F1I F 0.1415(2) 0.3307(2) 1.2059(2)
O3I O 0.3064(2) 0.4389(2) 1.1330(2)
O4I O 0.2643(2) 0.5200(3) 0.9931(2)
C1I C 0.1692(3) 0.3702(3) 1.0313(3)
C2I C 0.1167(3) 0.3170(3) 1.1061(3)
C3I C 0.0389(4) 0.2501(3) 1.0850(3)
H1I H 0.00280 0.21690 1.13840
C4I C 0.0141(4) 0.2324(4) 0.9828(4)
H2I H -0.03970 0.18660 0.96610
C5I C 0.0678(4) 0.2814(3) 0.9052(3)
H3I H 0.05300 0.26670 0.83570
C6I C 0.1429(3) 0.3517(3) 0.9297(3)
H4I H 0.17690 0.38770 0.87670
C7I C 0.2503(3) 0.4463(3) 1.0548(3)
H6G H 1.143(3) 0.730(4) 0.822(4)
H6J H 1.178(3) 0.643(4) 0.770(4)
#END

data_CSD_CIF_GOQXIW
_audit_creation_date 2019-10-11
_audit_creation_method CSD-ConQuest-V1
_database_code_CSD GOQXIW
_database_code_depnum_ccdc_archive 'CCDC 1833120'
_chemical_formula_sum 'C21 H16 F3 N1 O8 Pu1'
_chemical_formula_moiety
;
C21 H12 F3 O8 Pu1 1-,H4 N1 1+
;
_journal_coden_Cambridge 513
_journal_volume 61
_journal_year 2019
_journal_page_first 293
_journal_name_full 'Radiokhimiya(Russ.)(Radiochem.) '
loop_
_publ_author_name
"V.N.Serezhkin"
"M.S.Grigor'ev"
"A.M.Fedoseev"
"N.A.Budantseva"
"L.B.Serezhkina"
_chemical_name_systematic
;
ammonium tris(2-fluorobenzoato)-dioxo-plutonium(vi)
;
_cell_volume   2238.683
_exptl_special_details
;
We calculate 5.11% void space in the structure

;
_diffrn_ambient_temperature 100
#These two values have been output from a single CSD field.
_refine_ls_R_factor_gt 0.0152
_refine_ls_wR_factor_gt 0.0152
_symmetry_cell_setting cubic
_symmetry_space_group_name_H-M 'P 21 3'
_symmetry_Int_Tables_number 198
loop_
_symmetry_equiv_pos_site_id
_symmetry_equiv_pos_as_xyz
1 x,y,z
2 1/2-x,-y,1/2+z
3 -x,1/2+y,1/2-z
4 1/2+x,1/2-y,-z
5 z,x,y
6 1/2+z,1/2-x,-y
7 1/2-z,-x,1/2+y
8 -z,1/2+x,1/2-y
9 y,z,x
10 -y,1/2+z,1/2-x
11 1/2+y,1/2-z,-x
12 1/2-y,-z,1/2+x
_cell_length_a 13.0817(6)
_cell_length_b 13.0817(6)
_cell_length_c 13.0817(6)
_cell_angle_alpha 90
_cell_angle_beta 90
_cell_angle_gamma 90
_cell_formula_units_Z 4
loop_
_atom_type_symbol
_atom_type_radius_bond
C 0.68
H 0.23
F 0.64
N 0.68
O 0.68
Pu 1.87
loop_
_atom_site_label
_atom_site_type_symbol
_atom_site_fract_x
_atom_site_fract_y
_atom_site_fract_z
Pu1 Pu 0.58656(2) 0.41344(2) -0.08656(2)
F1 F 0.70529(16) 0.14174(17) 0.16972(18)
O1 O 0.5096(2) 0.4904(2) -0.0096(2)
O2 O 0.66384(19) 0.33616(19) -0.16384(19)
O3 O 0.63272(18) 0.30711(18) 0.06175(18)
O4 O 0.49230(19) 0.2652(2) -0.01964(19)
C1 C 0.5308(3) 0.1697(3) 0.1298(3)
C2 C 0.6060(3) 0.1170(3) 0.1833(3)
C3 C 0.5838(3) 0.0381(2) 0.2499(3)
H1 H 0.63710 0.00160 0.28300
C4 C 0.4823(3) 0.0131(3) 0.2672(3)
H2 H 0.46570 -0.04090 0.31270
C5 C 0.4047(3) 0.0668(3) 0.2184(3)
H3 H 0.33520 0.05130 0.23290
C6 C 0.4287(3) 0.1429(3) 0.1485(3)
H4 H 0.37540 0.17720 0.11300
C7 C 0.5535(3) 0.2510(3) 0.0538(2)
N1 N -0.1703(3) 0.3297(3) 0.1703(3)
H5 H -0.1334(16) 0.3666(16) 0.1334(16)
H6 H -0.227(3) 0.319(3) 0.142(3)
F1F F 0.33028(16) 0.29471(17) -0.35826(18)
O3F O 0.43825(18) 0.36728(18) -0.19289(18)
O4F O 0.51964(19) 0.5077(2) -0.23480(19)
C1F C 0.3702(3) 0.4692(3) -0.3303(3)
C2F C 0.3167(3) 0.3940(3) -0.3830(3)
C3F C 0.2501(3) 0.4162(2) -0.4619(3)
H1F H 0.21700 0.36290 -0.49840
C4F C 0.2328(3) 0.5177(3) -0.4869(3)
H2F H 0.18730 0.53430 -0.54090
C5F C 0.2816(3) 0.5953(3) -0.4332(3)
H3F H 0.26710 0.66480 -0.44870
C6F C 0.3515(3) 0.5713(3) -0.3571(3)
H4F H 0.38700 0.62460 -0.32280
C7F C 0.4462(3) 0.4465(3) -0.2490(2)
F1I F 0.85826(16) 0.66972(17) -0.20529(18)
O3I O 0.69289(18) 0.56175(18) -0.13272(18)
O4I O 0.73480(19) 0.48036(20) 0.00770(19)
C1I C 0.8303(3) 0.6298(3) -0.0308(3)
C2I C 0.8830(3) 0.6833(3) -0.1060(3)
C3I C 0.9619(3) 0.7499(2) -0.0838(3)
H1I H 0.99840 0.78300 -0.13710
C4I C 0.9869(3) 0.7672(3) 0.0177(3)
H2I H 1.04090 0.81270 0.03430
C5I C 0.9332(3) 0.7184(3) 0.0953(3)
H3I H 0.94870 0.73290 0.16480
C6I C 0.8571(3) 0.6485(3) 0.0713(3)
H4I H 0.82280 0.61300 0.12460
C7I C 0.7490(3) 0.5538(3) -0.0535(2)
H6G H -0.142(3) 0.273(3) 0.181(3)
H6J H -0.181(3) 0.358(3) 0.227(3)
#END

data_CSD_CIF_GOQXOC
_audit_creation_date 2019-10-11
_audit_creation_method CSD-ConQuest-V1
_database_code_CSD GOQXOC
_database_code_depnum_ccdc_archive 'CCDC 1833121'
_chemical_formula_sum 'C21 H16 F3 N1 O8 U1'
_chemical_formula_moiety
;
C21 H12 F3 O8 U1 1-,H4 N1 1+
;
_journal_coden_Cambridge 513
_journal_volume 61
_journal_year 2019
_journal_page_first 293
_journal_name_full 'Radiokhimiya(Russ.)(Radiochem.) '
loop_
_publ_author_name
"V.N.Serezhkin"
"M.S.Grigor'ev"
"A.M.Fedoseev"
"N.A.Budantseva"
"L.B.Serezhkina"
_chemical_name_systematic
;
ammonium tris(2-fluorobenzoato)-dioxo-uranium(vi)
;
_cell_volume   2250.666
_exptl_crystal_density_diffrn 2.082
_exptl_special_details
;
We calculate 5.30% void space in the structure

;
_diffrn_ambient_temperature 100
#These two values have been output from a single CSD field.
_refine_ls_R_factor_gt 0.0148
_refine_ls_wR_factor_gt 0.0148
_symmetry_cell_setting cubic
_symmetry_space_group_name_H-M 'P 21 3'
_symmetry_Int_Tables_number 198
loop_
_symmetry_equiv_pos_site_id
_symmetry_equiv_pos_as_xyz
1 x,y,z
2 1/2-x,-y,1/2+z
3 -x,1/2+y,1/2-z
4 1/2+x,1/2-y,-z
5 z,x,y
6 1/2+z,1/2-x,-y
7 1/2-z,-x,1/2+y
8 -z,1/2+x,1/2-y
9 y,z,x
10 -y,1/2+z,1/2-x
11 1/2+y,1/2-z,-x
12 1/2-y,-z,1/2+x
_cell_length_a 13.1050(4)
_cell_length_b 13.1050(4)
_cell_length_c 13.1050(4)
_cell_angle_alpha 90
_cell_angle_beta 90
_cell_angle_gamma 90
_cell_formula_units_Z 4
loop_
_atom_type_symbol
_atom_type_radius_bond
C 0.68
H 0.23
F 0.64
N 0.68
O 0.68
U 1.96
loop_
_atom_site_label
_atom_site_type_symbol
_atom_site_fract_x
_atom_site_fract_y
_atom_site_fract_z
U1 U 0.66183(2) 0.33817(2) 0.83817(2)
F1 F 0.91853(16) 0.60915(15) 0.95662(15)
O1 O 0.73945(18) 0.26055(18) 0.76055(18)
O2 O 0.58402(18) 0.41598(18) 0.91598(18)
O3 O 0.81035(17) 0.44407(17) 0.88418(17)
O4 O 0.72935(17) 0.48665(19) 0.74450(18)
C1 C 0.8793(2) 0.5809(2) 0.7824(3)
C2 C 0.9326(2) 0.6334(2) 0.8573(2)
C3 C 0.9999(2) 0.7114(2) 0.8354(3)
H1 H 1.03310 0.74780 0.88850
C4 C 1.0177(3) 0.7352(3) 0.7340(3)
H2 H 1.06390 0.78860 0.71720
C5 C 0.9688(2) 0.6818(2) 0.6566(3)
H3 H 0.98350 0.69670 0.58720
C6 C 0.8986(3) 0.6071(3) 0.6807(3)
H4 H 0.86300 0.57290 0.62760
C7 C 0.8026(2) 0.5001(2) 0.8054(2)
N1 N 0.9208(2) 0.4208(2) 1.0792(2)
H5 H 0.8816(15) 0.3816(15) 1.1184(15)
H6 H 0.889(3) 0.431(3) 1.020(2)
F1F F 0.54338(16) 0.08147(15) 1.10915(15)
O3F O 0.61582(17) 0.18965(17) 0.94407(17)
O4F O 0.75550(17) 0.27065(19) 0.98665(18)
C1F C 0.7176(2) 0.1207(2) 1.0809(3)
C2F C 0.6427(2) 0.0674(2) 1.1334(2)
C3F C 0.6646(2) 0.0001(2) 1.2114(3)
H1F H 0.61150 -0.03310 1.24780
C4F C 0.7660(3) -0.0177(3) 1.2352(3)
H2F H 0.78280 -0.06390 1.28860
C5F C 0.8434(2) 0.0312(2) 1.1818(3)
H3F H 0.91280 0.01650 1.19670
C6F C 0.8193(3) 0.1014(3) 1.1071(3)
H4F H 0.87240 0.13700 1.07290
C7F C 0.6946(2) 0.1974(2) 1.0001(2)
F1I F 0.39085(16) 0.45662(15) 0.58147(15)
O3I O 0.55593(17) 0.38418(17) 0.68965(17)
O4I O 0.51335(17) 0.24450(19) 0.77065(18)
C1I C 0.4191(2) 0.2824(2) 0.6207(3)
C2I C 0.3666(2) 0.3573(2) 0.5674(2)
C3I C 0.2886(2) 0.3354(2) 0.5001(3)
H1I H 0.25220 0.38850 0.46690
C4I C 0.2648(3) 0.2340(3) 0.4823(3)
H2I H 0.21140 0.21720 0.43610
C5I C 0.3182(2) 0.1566(2) 0.5312(3)
H3I H 0.30330 0.08720 0.51650
C6I C 0.3929(3) 0.1807(3) 0.6014(3)
H4I H 0.42710 0.12760 0.63700
C7I C 0.4999(2) 0.3054(2) 0.6974(2)
H6G H 0.980(3) 0.389(3) 1.069(2)
H6J H 0.931(3) 0.480(3) 1.111(2)
#END

data_CSD_CIF_HAJKUZ
_audit_creation_date 2005-03-15
_audit_creation_method CSD-ConQuest-V1
_database_code_CSD HAJKUZ
_database_code_depnum_ccdc_archive 'CCDC 242988'
_chemical_formula_sum 'C27 H45 N7 Ni1'
_chemical_formula_moiety
;
C27 H45 N7 Ni1
;
_journal_coden_Cambridge 182
_journal_year 2004
_journal_page_first 2164
_journal_name_full 'Chem.Commun. '
loop_
_publ_author_name
"Xile Hu"
"I.Castro-Rodriguez"
"K.Meyer"
_chemical_name_systematic
;
(tris(2-(3-t-butylimidazol-2-ylidene)ethyl)amine)-nickel(0)
;
_cell_volume   2755.482
_exptl_crystal_colour 'deep red'
_exptl_crystal_density_diffrn 1.269
_exptl_crystal_description 'Block'
_exptl_crystal_preparation 'diethyl ether'
_diffrn_ambient_temperature 100
#These two values have been output from a single CSD field.
_refine_ls_R_factor_gt 0.0225
_refine_ls_wR_factor_gt 0.0225
_symmetry_cell_setting cubic
_symmetry_space_group_name_H-M 'P 21 3'
_symmetry_Int_Tables_number 198
loop_
_symmetry_equiv_pos_site_id
_symmetry_equiv_pos_as_xyz
1 x,y,z
2 1/2-x,-y,1/2+z
3 -x,1/2+y,1/2-z
4 1/2+x,1/2-y,-z
5 z,x,y
6 1/2+z,1/2-x,-y
7 1/2-z,-x,1/2+y
8 -z,1/2+x,1/2-y
9 y,z,x
10 -y,1/2+z,1/2-x
11 1/2+y,1/2-z,-x
12 1/2-y,-z,1/2+x
_cell_length_a 14.0195(3)
_cell_length_b 14.0195(3)
_cell_length_c 14.0195(3)
_cell_angle_alpha 90
_cell_angle_beta 90
_cell_angle_gamma 90
_cell_formula_units_Z 4
loop_
_atom_type_symbol
_atom_type_radius_bond
C 0.68
H 0.23
N 0.68
Ni 1.50
loop_
_atom_site_label
_atom_site_type_symbol
_atom_site_fract_x
_atom_site_fract_y
_atom_site_fract_z
Ni1 Ni 0.311583(10) 0.188417(10) 0.811583(10)
N1 N 0.44348(8) 0.05652(8) 0.94348(8)
N2 N 0.29371(7) 0.20979(8) 1.01406(7)
N3 N 0.28584(7) 0.35149(8) 0.95454(8)
C1 C 0.39349(10) 0.06328(10) 1.03397(9)
C2 C 0.29360(9) 0.10682(9) 1.02736(9)
C3 C 0.29064(8) 0.25592(9) 0.92652(9)
C4 C 0.29649(9) 0.27275(10) 1.09019(9)
C5 C 0.29166(9) 0.36132(10) 1.05318(9)
C6 C 0.29384(9) 0.43329(9) 0.88758(9)
C7 C 0.26164(11) 0.52496(10) 0.93688(12)
C8 C 0.3981(1) 0.44243(10) 0.85567(11)
C9 C 0.23004(11) 0.41502(10) 0.80178(11)
H1 H 0.3837(13) -0.0036(13) 1.0613(14)
H2 H 0.4280(11) 0.0984(11) 1.0762(11)
H3 H 0.2595(11) 0.0808(11) 0.9752(11)
H4 H 0.2615(12) 0.0945(12) 1.0866(13)
H5 H 0.3000(12) 0.2486(11) 1.1519(12)
H6 H 0.2909(13) 0.4210(14) 1.0809(14)
H7 H 0.3076(15) 0.5442(14) 0.9911(14)
H8 H 0.2628(12) 0.5729(13) 0.8893(13)
H9 H 0.2009(14) 0.5205(12) 0.9618(13)
H10 H 0.4134(12) 0.3852(12) 0.8225(12)
H11 H 0.4379(13) 0.4528(13) 0.9082(14)
H12 H 0.4070(13) 0.4973(13) 0.8095(15)
H13 H 0.2368(14) 0.4637(15) 0.7614(15)
H14 H 0.2510(13) 0.3600(13) 0.7709(12)
H15 H 0.1637(13) 0.4107(12) 0.8209(13)
C1E C 0.53397(10) 0.10651(10) 0.93672(9)
C2E C 0.52736(9) 0.20640(9) 0.89318(9)
N2E N 0.51406(7) 0.20629(8) 0.79021(7)
C3E C 0.42652(8) 0.20936(9) 0.74408(9)
C3K C 0.24408(8) 0.07348(9) 0.79064(9)
N2K N 0.29021(7) -0.01406(8) 0.79371(7)
C2K C 0.39318(9) -0.02736(9) 0.79360(9)
C1K C 0.43672(10) -0.03397(10) 0.89349(9)
H1K H 0.5036(13) -0.0613(13) 0.8837(14)
H2K H 0.4016(11) -0.0762(11) 0.9280(11)
H3K H 0.4192(11) 0.0248(11) 0.7595(11)
H4K H 0.4055(12) -0.0866(12) 0.7615(13)
C4K C 0.22725(9) -0.09019(10) 0.79649(9)
C5K C 0.13868(9) -0.05318(10) 0.79166(9)
N3K N 0.14851(7) 0.04546(8) 0.78584(8)
C6K C 0.06671(9) 0.11242(9) 0.79384(9)
C7K C -0.02496(11) 0.06312(10) 0.76164(12)
H7K H -0.0442(15) 0.0089(14) 0.8076(14)
H8K H -0.0729(12) 0.1107(13) 0.7628(13)
H9K H -0.0205(14) 0.0382(12) 0.7009(13)
C8K C 0.05757(10) 0.14433(10) 0.89810(11)
H10K H 0.1148(12) 0.1775(12) 0.9134(12)
H11K H 0.0472(13) 0.0918(13) 0.9379(14)
H12K H 0.0027(13) 0.1905(13) 0.9070(15)
C9K C 0.08498(11) 0.19822(10) 0.73004(11)
H13K H 0.0363(14) 0.2386(15) 0.7368(15)
H14K H 0.1400(13) 0.2291(13) 0.7510(12)
H15K H 0.0893(13) 0.1791(12) 0.6637(13)
H6K H 0.0790(13) -0.0809(14) 0.7909(14)
H5K H 0.2514(12) -0.1519(11) 0.8000(12)
N3E N 0.45454(7) 0.21416(8) 0.64851(8)
C5E C 0.55318(9) 0.20834(10) 0.63868(9)
C4E C 0.59019(9) 0.20351(10) 0.72725(9)
H5E H 0.6519(12) 0.2000(11) 0.7514(12)
H6E H 0.5809(13) 0.2091(14) 0.5790(14)
C6E C 0.38758(9) 0.20616(9) 0.56671(9)
C7E C 0.43688(11) 0.23836(10) 0.47504(12)
H7E H 0.4911(15) 0.1924(14) 0.4558(14)
H8E H 0.3893(12) 0.2372(13) 0.4271(13)
H9E H 0.4618(14) 0.2991(12) 0.4795(13)
C8E C 0.35567(10) 0.1019(1) 0.55757(11)
H10E H 0.3225(12) 0.0866(12) 0.6148(12)
H11E H 0.4082(13) 0.0621(13) 0.5472(14)
H12E H 0.3095(13) 0.0930(13) 0.5027(15)
C9E C 0.30178(11) 0.26996(10) 0.58498(11)
H13E H 0.2614(14) 0.2632(15) 0.5363(15)
H14E H 0.2709(13) 0.2490(13) 0.6400(12)
H15E H 0.3209(13) 0.3363(12) 0.5893(13)
H3E H 0.4752(11) 0.2405(11) 0.9192(11)
H4E H 0.5866(12) 0.2385(12) 0.9055(13)
H1E H 0.5613(13) 0.1163(13) 1.0036(14)
H2E H 0.5762(11) 0.0720(11) 0.9016(11)
#END

data_CSD_CIF_HAVTAC
_audit_creation_date 2017-05-16
_audit_creation_method CSD-ConQuest-V1
_database_code_CSD HAVTAC
_database_code_depnum_ccdc_archive 'CCDC 1550346'
_chemical_formula_sum 'C54 H69 Fe1 N7 O1'
_chemical_formula_moiety
;
C54 H69 Fe1 N7 O1
;
_journal_coden_Cambridge 9
_journal_volume 56
_journal_year 2017
_journal_page_first 4852
_journal_name_full 'Inorg.Chem. '
loop_
_publ_author_name
"Z.Gordon"
"M.J.Drummond"
"E.M.Matson"
"J.A.Bogart"
"E.J.Schelter"
"R.L.Lord"
"A.R.Fout"
_chemical_name_systematic
;
(2,2'-((((2-((2,6-dimethylanilino)methylidene)-2H-pyrrol-5-yl)methyl)azanediyl
)bis(methylene))bis(5-([(2,6-dimethylphenyl)imino]methyl)pyrrol-1-yl))-aqua-ir
on(ii)
;
_cell_volume   4942.972
_exptl_crystal_colour 'brown'
_exptl_crystal_density_diffrn 1.193
_exptl_special_details
;
The data crystal was mounted using oil (Parantone-N, Exxon) to a  0.3 mm 
cryo-loop (Hampton Research) with the (-1, 1, 0) scattering  planes roughly 
normal to the spindle axis.
;
_exptl_crystal_description 'Square'
_diffrn_ambient_temperature 100.2
#These two values have been output from a single CSD field.
_refine_ls_R_factor_gt 0.0303
_refine_ls_wR_factor_gt 0.0303
_symmetry_cell_setting cubic
_symmetry_space_group_name_H-M 'P 21 3'
_symmetry_Int_Tables_number 198
loop_
_symmetry_equiv_pos_site_id
_symmetry_equiv_pos_as_xyz
1 x,y,z
2 1/2-x,-y,1/2+z
3 -x,1/2+y,1/2-z
4 1/2+x,1/2-y,-z
5 z,x,y
6 1/2+z,1/2-x,-y
7 1/2-z,-x,1/2+y
8 -z,1/2+x,1/2-y
9 y,z,x
10 -y,1/2+z,1/2-x
11 1/2+y,1/2-z,-x
12 1/2-y,-z,1/2+x
_cell_length_a 17.0345(5)
_cell_length_b 17.0345
_cell_length_c 17.0345
_cell_angle_alpha 90
_cell_angle_beta 90
_cell_angle_gamma 90
_cell_formula_units_Z 4
loop_
_atom_type_symbol
_atom_type_radius_bond
C 0.68
H 0.23
Fe 1.52
N 0.68
O 0.68
loop_
_atom_site_label
_atom_site_type_symbol
_atom_site_fract_x
_atom_site_fract_y
_atom_site_fract_z
Fe1 Fe 0.32878(2) 0.32878(2) 0.32878(2)
O1 O 0.25736(8) 0.25736(8) 0.25736(8)
N1 N 0.40418(9) 0.40418(9) 0.40418(9)
N2 N 0.43917(9) 0.3042(1) 0.28554(9)
N3 N 0.3607(1) 0.25122(9) 0.13812(9)
C1 C 0.47785(12) 0.35971(13) 0.41316(13)
H1 H 0.47160 0.31940 0.45450
H2 H 0.52070 0.39560 0.42900
C2 C 0.49797(11) 0.32105(12) 0.33651(12)
C3 C 0.57099(12) 0.29945(13) 0.30604(13)
H3 H 0.62050 0.30430 0.33120
C4 C 0.55663(12) 0.26932(12) 0.23141(13)
H4 H 0.59470 0.25020 0.19540
C5 C 0.47488(11) 0.27259(11) 0.21963(11)
C6 C 0.43617(12) 0.25296(11) 0.14929(11)
H5 H 0.46840 0.23970 0.10570
C7 C 0.33014(12) 0.24301(11) 0.0602(1)
C8 C 0.32735(12) 0.30966(11) 0.01136(10)
C9 C 0.29216(11) 0.30147(12) -0.06210(11)
H6 H 0.28810 0.34590 -0.09560
C10 C 0.26305(12) 0.23001(13) -0.08702(12)
H7 H 0.24000 0.22570 -0.13760
C11 C 0.26724(12) 0.16449(13) -0.03879(11)
H8 H 0.24800 0.11540 -0.05700
C12 C 0.29957(11) 0.17018(12) 0.03659(10)
C13 C 0.35848(13) 0.38898(11) 0.03875(12)
H9 H 0.40800 0.37910 0.06870
C14 C 0.30030(16) 0.42766(13) 0.09491(15)
H10 H 0.25260 0.44200 0.06620
H11 H 0.32400 0.47490 0.11750
H12 H 0.28700 0.39080 0.13710
C15 C 0.37836(17) 0.44474(15) -0.02859(14)
H13 H 0.41520 0.41910 -0.06450
H14 H 0.40240 0.49260 -0.00740
H15 H 0.33030 0.45840 -0.05700
C16 C 0.30298(13) 0.09909(12) 0.09016(12)
H16 H 0.30220 0.11850 0.14560
C17 C 0.37920(16) 0.05390(15) 0.07831(17)
H17 H 0.38180 0.03450 0.02420
H18 H 0.38100 0.00940 0.11470
H19 H 0.42390 0.08870 0.08840
C18 C 0.23265(16) 0.04416(14) 0.07942(16)
H20 H 0.18390 0.07400 0.08580
H21 H 0.23480 0.00230 0.11880
H22 H 0.23420 0.02100 0.02680
H23? H 0.2908(18) 0.259(2) 0.2163(17)
N2D N 0.28554(9) 0.43917(10) 0.30420(9)
N3D N 0.13812(10) 0.36070(9) 0.25122(9)
C1D C 0.41316(12) 0.47785(13) 0.35971(13)
H1D H 0.45450 0.47160 0.31940
H2D H 0.42900 0.52070 0.39560
C2D C 0.33651(11) 0.49797(12) 0.32105(12)
C3D C 0.30604(12) 0.57099(13) 0.29945(13)
H3D H 0.33120 0.62050 0.30430
C4D C 0.23141(12) 0.55663(12) 0.26932(13)
H4D H 0.19540 0.59470 0.25020
C5D C 0.21963(11) 0.47488(11) 0.27259(11)
C6D C 0.14929(12) 0.43617(11) 0.25296(11)
H5D H 0.10570 0.46840 0.23970
C7D C 0.06020(12) 0.33014(11) 0.24301(10)
C8D C 0.01136(12) 0.32735(11) 0.30966(10)
C9D C -0.06210(11) 0.29216(12) 0.30147(11)
H6D H -0.09560 0.28810 0.34590
C10D C -0.08702(12) 0.26305(13) 0.23001(12)
H7D H -0.13760 0.24000 0.22570
C11D C -0.03879(12) 0.26724(13) 0.16449(11)
H8D H -0.05700 0.24800 0.11540
C12D C 0.03659(11) 0.29957(12) 0.17018(10)
C13D C 0.03875(13) 0.35848(11) 0.38898(12)
H9D H 0.06870 0.40800 0.37910
C14D C 0.09491(16) 0.30030(13) 0.42766(15)
H10D H 0.06620 0.25260 0.44200
H11D H 0.11750 0.32400 0.47490
H12D H 0.13710 0.28700 0.39080
C15D C -0.02859(17) 0.37836(15) 0.44474(14)
H13D H -0.06450 0.41520 0.41910
H14D H -0.00740 0.40240 0.49260
H15D H -0.05700 0.33030 0.45840
C16D C 0.09016(13) 0.30298(12) 0.09909(12)
H16D H 0.14560 0.30220 0.11850
C17D C 0.07831(16) 0.37920(15) 0.05390(17)
H17D H 0.02420 0.38180 0.03450
H18D H 0.11470 0.38100 0.00940
H19D H 0.08840 0.42390 0.08870
C18D C 0.07942(16) 0.23265(14) 0.04416(16)
H20D H 0.08580 0.18390 0.07400
H21D H 0.11880 0.23480 0.00230
H22D H 0.02680 0.23420 0.02100
N2H N 0.30420(9) 0.28554(10) 0.43917(9)
N3H N 0.25122(10) 0.13812(9) 0.36070(9)
C1H C 0.35971(12) 0.41316(13) 0.47785(13)
H1H H 0.31940 0.45450 0.47160
H2H H 0.39560 0.42900 0.52070
C2H C 0.32105(11) 0.33651(12) 0.49797(12)
C3H C 0.29945(12) 0.30604(13) 0.57099(13)
H3H H 0.30430 0.33120 0.62050
C4H C 0.26932(12) 0.23141(12) 0.55663(13)
H4H H 0.25020 0.19540 0.59470
C5H C 0.27259(11) 0.21963(11) 0.47488(11)
C6H C 0.25296(12) 0.14929(11) 0.43617(11)
H5H H 0.23970 0.10570 0.46840
C7H C 0.24301(12) 0.06020(11) 0.33014(10)
C8H C 0.30966(12) 0.01136(11) 0.32735(10)
C9H C 0.30147(11) -0.06210(12) 0.29216(11)
H6H H 0.34590 -0.09560 0.28810
C10H C 0.23001(12) -0.08702(13) 0.26305(12)
H7H H 0.22570 -0.13760 0.24000
C11H C 0.16449(12) -0.03879(13) 0.26724(11)
H8H H 0.11540 -0.05700 0.24800
C12H C 0.17018(11) 0.03659(12) 0.29957(10)
C13H C 0.38898(13) 0.03875(11) 0.35848(12)
H9H H 0.37910 0.06870 0.40800
C14H C 0.42766(16) 0.09491(13) 0.30030(15)
H10H H 0.44200 0.06620 0.25260
H11H H 0.47490 0.11750 0.32400
H12H H 0.39080 0.13710 0.28700
C15H C 0.44474(17) -0.02859(15) 0.37836(14)
H13H H 0.41910 -0.06450 0.41520
H14H H 0.49260 -0.00740 0.40240
H15H H 0.45840 -0.05700 0.33030
C16H C 0.09909(13) 0.09016(12) 0.30298(12)
H16H H 0.11850 0.14560 0.30220
C17H C 0.05390(16) 0.07831(15) 0.37920(17)
H17H H 0.03450 0.02420 0.38180
H18H H 0.00940 0.11470 0.38100
H19H H 0.08870 0.08840 0.42390
C18H C 0.04416(16) 0.07942(14) 0.23265(16)
H20H H 0.07400 0.08580 0.18390
H21H H 0.00230 0.11880 0.23480
H22H H 0.02100 0.02680 0.23420
#END

data_CSD_CIF_HIWQEJ
_audit_creation_date 1999-06-22
_audit_creation_method CSD-ConQuest-V1
_database_code_CSD HIWQEJ
_database_code_depnum_ccdc_archive 'CCDC 105871; CCDC 410089'
_database_code_depnum_ccdc_fiz 'CSD 410089'
_chemical_formula_sum 'C1 H3 As1 F6 O3'
_chemical_formula_moiety
;
C1 H3 O3 1+,As1 F6 1-
;
_journal_coden_Cambridge 179
_journal_volume 38
_journal_year 1999
_journal_page_first 714
_journal_name_full 'Angew.Chem.,Int.Ed. '
loop_
_publ_author_name
"R.Minkwitz"
"S.Schneider"
_chemical_name_systematic
;
Trihydroxycarbenium hexafluoroarsenate
;
_chemical_name_common
;
Teaching Subset: Fundamental Chemistry
;
_chemical_melting_point ?
_cell_volume    636.056
_exptl_crystal_colour 'colorless'
_exptl_crystal_density_diffrn 2.631
_exptl_special_details
;
Decomposes above 257K
Moisture-sensitive

;
_exptl_crystal_description 'parallelepiped'
_diffrn_ambient_temperature 173
#These two values have been output from a single CSD field.
_refine_ls_R_factor_gt 0.027
_refine_ls_wR_factor_gt 0.027
_symmetry_cell_setting cubic
_symmetry_space_group_name_H-M 'P 21 3'
_symmetry_Int_Tables_number 198
loop_
_symmetry_equiv_pos_site_id
_symmetry_equiv_pos_as_xyz
1 x,y,z
2 1/2-x,-y,1/2+z
3 -x,1/2+y,1/2-z
4 1/2+x,1/2-y,-z
5 z,x,y
6 1/2+z,1/2-x,-y
7 1/2-z,-x,1/2+y
8 -z,1/2+x,1/2-y
9 y,z,x
10 -y,1/2+z,1/2-x
11 1/2+y,1/2-z,-x
12 1/2-y,-z,1/2+x
_cell_length_a 8.600(1)
_cell_length_b 8.600(1)
_cell_length_c 8.600(1)
_cell_angle_alpha 90
_cell_angle_beta 90
_cell_angle_gamma 90
_cell_formula_units_Z 4
loop_
_atom_type_symbol
_atom_type_radius_bond
C 0.68
H 0.23
As 1.21
F 0.64
O 0.68
loop_
_atom_site_label
_atom_site_type_symbol
_atom_site_fract_x
_atom_site_fract_y
_atom_site_fract_z
As1 As 0.88360(5) 0.88360(5) 0.88360(5)
F1 F 0.8717(4) 0.9003(4) 1.0826(3)
F2 F 0.8707(4) 0.6892(3) 0.9009(4)
C1 C 1.1164(5) 0.8836(5) 1.3836(5)
O1 O 1.1506(6) 0.9994(4) 1.3032(5)
H1 H 1.05740 0.97930 1.26100
F1D F 1.0826(4) 0.8717(4) 0.9003(3)
F1H F 0.9003(4) 1.0826(4) 0.8717(3)
F2D F 0.9009(4) 0.8707(3) 0.6892(4)
F2H F 0.6892(4) 0.9009(3) 0.8707(4)
O1F O 1.1968(6) 0.8494(4) 1.4994(5)
H1F H 1.23900 0.94260 1.47930
O1I O 1.0006(6) 0.8032(4) 1.3494(5)
H1I H 1.02070 0.76100 1.44260
#END

data_CSD_CIF_HUKTUC
_audit_creation_date 2003-02-11
_audit_creation_method CSD-ConQuest-V1
_database_code_CSD HUKTUC
_database_code_depnum_ccdc_archive 'CCDC 177342'
_chemical_formula_sum 'C12 H9 B1 O3'
_chemical_formula_moiety
;
C12 H9 B1 O3
;
_journal_coden_Cambridge 1290
_journal_year 2002
_journal_page_first 2942
_journal_name_full 'Eur.J.Inorg.Chem. '
loop_
_publ_author_name
"T.Kohler"
"J.Faderl"
"H.Pritzkow"
"W.Siebert"
_chemical_name_systematic
;
tris(2-Furanyl)borane
;
_cell_volume   1091.486
_exptl_crystal_colour 'colorless'
_exptl_crystal_density_diffrn 1.29
_exptl_crystal_description 'irregular'
_diffrn_ambient_temperature 190
#These two values have been output from a single CSD field.
_refine_ls_R_factor_gt 0.0387
_refine_ls_wR_factor_gt 0.0387
_symmetry_cell_setting cubic
_symmetry_space_group_name_H-M 'P 21 3'
_symmetry_Int_Tables_number 198
loop_
_symmetry_equiv_pos_site_id
_symmetry_equiv_pos_as_xyz
1 x,y,z
2 1/2-x,-y,1/2+z
3 -x,1/2+y,1/2-z
4 1/2+x,1/2-y,-z
5 z,x,y
6 1/2+z,1/2-x,-y
7 1/2-z,-x,1/2+y
8 -z,1/2+x,1/2-y
9 y,z,x
10 -y,1/2+z,1/2-x
11 1/2+y,1/2-z,-x
12 1/2-y,-z,1/2+x
_cell_length_a 10.2961(4)
_cell_length_b 10.2961(4)
_cell_length_c 10.2961(4)
_cell_angle_alpha 90
_cell_angle_beta 90
_cell_angle_gamma 90
_cell_formula_units_Z 4
loop_
_atom_type_symbol
_atom_type_radius_bond
C 0.68
H 0.23
B 0.83
O 0.68
loop_
_atom_site_label
_atom_site_type_symbol
_atom_site_fract_x
_atom_site_fract_y
_atom_site_fract_z
O1 O 0.73376(8) 0.47597(8) 0.40439(8)
B1 B 0.53285(9) 0.53285(9) 0.53285(9)
C1 C 0.64901(9) 0.44365(10) 0.50421(9)
C2 C 0.82503(13) 0.38160(13) 0.39826(13)
C3 C 0.80322(14) 0.28978(14) 0.48759(15)
C4 C 0.69088(13) 0.32888(12) 0.55637(12)
H1 H 0.8964(16) 0.3942(18) 0.3337(19)
H2 H 0.854(2) 0.2130(19) 0.5044(18)
H3 H 0.656(2) 0.290(2) 0.6268(19)
C1D C 0.50421(9) 0.64901(10) 0.44365(9)
O1D O 0.40439(8) 0.73376(8) 0.47597(8)
C2D C 0.39826(13) 0.82503(13) 0.38160(13)
C3D C 0.48759(14) 0.80322(14) 0.28978(15)
C4D C 0.55637(13) 0.69088(12) 0.32888(12)
H3D H 0.6268(20) 0.656(2) 0.2900(19)
H2D H 0.5044(20) 0.8540(19) 0.2130(18)
H1D H 0.3337(16) 0.8964(18) 0.3942(19)
C1H C 0.44365(9) 0.50421(10) 0.64901(9)
O1H O 0.47597(8) 0.40439(8) 0.73376(8)
C2H C 0.38160(13) 0.39826(13) 0.82503(13)
C3H C 0.28978(14) 0.48759(14) 0.80322(15)
C4H C 0.32888(13) 0.55637(12) 0.69088(12)
H3H H 0.290(2) 0.6268(20) 0.6560(19)
H2H H 0.213(2) 0.5044(19) 0.8540(18)
H1H H 0.3942(16) 0.3337(18) 0.8964(19)
#END

data_CSD_CIF_IBIQEQ
_audit_creation_date 2005-02-10
_audit_creation_method CSD-ConQuest-V1
_database_code_CSD IBIQEQ
_database_code_depnum_ccdc_archive 'CCDC 217717'
_chemical_formula_sum 'C18 H48 Cl4 Co1 Mo3 P6 S4'
_chemical_formula_moiety
;
C18 H48 Cl4 Co1 Mo3 P6 S4
;
_journal_coden_Cambridge 1220
_journal_volume 10
_journal_year 2004
_journal_page_first 4308
_journal_name_full 'Chem.-Eur.J. '
loop_
_publ_author_name
"M.Feliz"
"R.Llusar"
"S.Uriel"
"C.Vicent"
"E.Coronado"
"C.J.Gomez-Garcia"
_chemical_name_systematic
;
tetrakis(\m~3~-Sulfido)-tetrachloro-tris(1,2-bis(dimethylphosphino)ethane)-cob
alt-tri-molybdenum
;
_cell_volume   4515.934
_exptl_crystal_colour 'brown'
_exptl_crystal_description 'cube'
_diffrn_ambient_temperature 293
#These two values have been output from a single CSD field.
_refine_ls_R_factor_gt 0.0425
_refine_ls_wR_factor_gt 0.0425
_symmetry_cell_setting cubic
_symmetry_space_group_name_H-M 'P 21 3'
_symmetry_Int_Tables_number 198
loop_
_symmetry_equiv_pos_site_id
_symmetry_equiv_pos_as_xyz
1 x,y,z
2 1/2-x,-y,1/2+z
3 -x,1/2+y,1/2-z
4 1/2+x,1/2-y,-z
5 z,x,y
6 1/2+z,1/2-x,-y
7 1/2-z,-x,1/2+y
8 -z,1/2+x,1/2-y
9 y,z,x
10 -y,1/2+z,1/2-x
11 1/2+y,1/2-z,-x
12 1/2-y,-z,1/2+x
_cell_length_a 16.5291(15)
_cell_length_b 16.5291(15)
_cell_length_c 16.5291(15)
_cell_angle_alpha 90
_cell_angle_beta 90
_cell_angle_gamma 90
_cell_formula_units_Z 4
loop_
_atom_type_symbol
_atom_type_radius_bond
C 0.68
H 0.23
Cl 0.99
Co 1.10
Mo 1.17
P 1.05
S 1.02
loop_
_atom_site_label
_atom_site_type_symbol
_atom_site_fract_x
_atom_site_fract_y
_atom_site_fract_z
Mo1 Mo 0.37884(4) 0.48287(4) 0.04277(4)
Co1 Co 0.37535(7) 0.62465(7) 0.12465(7)
S1 S 0.51156(13) 0.48844(13) -0.01156(13)
S2 S 0.39554(12) 0.50592(13) 0.18334(12)
P1 P 0.23871(15) 0.43650(16) 0.08643(15)
P2 P 0.31857(17) 0.42526(16) -0.08845(15)
Cl1 Cl 0.40685(17) 0.33293(14) 0.05585(16)
Cl2 Cl 0.29712(14) 0.70288(14) 0.20288(14)
C1 C 0.2373(7) 0.3608(7) 0.1632(6)
H1 H 0.26500 0.38060 0.21030
H2 H 0.26390 0.31300 0.14380
H3 H 0.18230 0.34820 0.17690
C2 C 0.1693(6) 0.5171(7) 0.1246(7)
H4 H 0.16700 0.56050 0.08610
H5 H 0.18910 0.53730 0.17540
H6 H 0.11610 0.49500 0.13200
C3 C 0.1834(7) 0.3889(8) 0.0022(6)
H7 H 0.14780 0.34750 0.02360
H8 H 0.15010 0.42940 -0.02420
C4 C 0.2375(7) 0.3524(7) -0.0579(7)
H9 H 0.20650 0.33670 -0.10520
H10 H 0.26210 0.30410 -0.03530
C5 C 0.3782(8) 0.3729(7) -0.1594(7)
H11 H 0.41190 0.33440 -0.13180
H12 H 0.41170 0.41070 -0.18820
H13 H 0.34370 0.34510 -0.19700
C6 C 0.2627(7) 0.4929(7) -0.1532(6)
H14 H 0.22650 0.52500 -0.12110
H15 H 0.23210 0.46200 -0.19170
H16 H 0.29970 0.52770 -0.18130
Mo1I Mo 0.51713(4) 0.54277(4) 0.12116(4)
S2I S 0.49408(12) 0.68334(13) 0.10446(12)
Mo1F Mo 0.45723(4) 0.62116(4) -0.01713(4)
S2F S 0.31666(12) 0.60446(13) 0.00592(12)
P1I P 0.56350(15) 0.58643(16) 0.26129(15)
C1I C 0.6392(7) 0.6632(7) 0.2627(6)
H1I H 0.61940 0.71030 0.23500
H2I H 0.68700 0.64380 0.23610
H3I H 0.65180 0.67690 0.31770
C2I C 0.4829(6) 0.6246(7) 0.3307(7)
H4I H 0.43950 0.58610 0.33300
H5I H 0.46270 0.67540 0.31090
H6I H 0.50500 0.63200 0.38390
C3I C 0.6111(7) 0.5022(8) 0.3166(6)
H7I H 0.65250 0.52360 0.35220
H8I H 0.57060 0.47580 0.34990
C4I C 0.6476(7) 0.4421(7) 0.2625(7)
P2I P 0.57474(17) 0.41155(16) 0.18143(15)
Cl1I Cl 0.66707(17) 0.55585(14) 0.09315(16)
C5I C 0.6271(8) 0.3406(7) 0.1218(7)
H11I H 0.66560 0.36820 0.08810
H12I H 0.58930 0.31180 0.08830
H13I H 0.65490 0.30300 0.15630
C6I C 0.5071(7) 0.3468(7) 0.2373(6)
H14I H 0.47500 0.37890 0.27350
H15I H 0.53800 0.30830 0.26790
H16I H 0.47230 0.31870 0.20030
H9I H 0.66330 0.39480 0.29350
H10I H 0.69590 0.46470 0.23790
P1F P 0.41357(15) 0.76129(16) -0.06350(15)
C1F C 0.3368(7) 0.7627(7) -0.1392(6)
H1F H 0.28970 0.73500 -0.11940
H2F H 0.35620 0.73610 -0.18700
H3F H 0.32310 0.81770 -0.15180
C2F C 0.3754(6) 0.8307(7) 0.0171(7)
H4F H 0.41390 0.83300 0.06050
H5F H 0.32460 0.81090 0.03730
H6F H 0.36800 0.88390 -0.00500
C3F C 0.4978(7) 0.8166(8) -0.1111(6)
H7F H 0.47640 0.85220 -0.15250
H8F H 0.52420 0.84990 -0.07060
C4F C 0.5579(7) 0.7625(7) -0.1476(7)
P2F P 0.58845(17) 0.68143(16) -0.07474(15)
Cl1F Cl 0.44415(17) 0.59315(14) -0.16707(16)
C5F C 0.6594(8) 0.6218(7) -0.1271(7)
H11F H 0.63180 0.58810 -0.16560
H12F H 0.68820 0.58830 -0.08930
H13F H 0.69700 0.65630 -0.15490
C6F C 0.6532(7) 0.7373(7) -0.0071(6)
H14F H 0.62110 0.77350 0.02500
H15F H 0.69170 0.76790 -0.03800
H16F H 0.68130 0.70030 0.02770
H9F H 0.60520 0.79350 -0.16330
H10F H 0.53530 0.73790 -0.19590
#END

data_CSD_CIF_IBIXIA
_audit_creation_date 2001-10-05
_audit_creation_method CSD-ConQuest-V1
_database_code_CSD IBIXIA
_database_code_depnum_ccdc_archive 'CCDC 167698'
_chemical_formula_sum 'C38 H36 Cl4 Mn1 P2'
_chemical_formula_moiety
;
2(C19 H18 P1 1+),Cl4 Mn1 2-
;
_journal_coden_Cambridge 9
_journal_volume 40
_journal_year 2001
_journal_page_first 3576
_journal_name_full 'Inorg.Chem. '
loop_
_publ_author_name
"F.A.Cotton"
"L.M.Daniels"
"P.Huang"
_chemical_name_systematic
;
bis(Triphenyl(methyl)phosphonium) tetrachloro-manganese(ii)
;
_cell_volume   3709.766
_exptl_crystal_colour 'pale green'
_exptl_crystal_density_diffrn 1.345
_exptl_special_details
;
triboluminescent

;
_exptl_crystal_description 'block'
_diffrn_ambient_temperature 213
#These two values have been output from a single CSD field.
_refine_ls_R_factor_gt 0.0343
_refine_ls_wR_factor_gt 0.0343
_symmetry_cell_setting cubic
_symmetry_space_group_name_H-M 'P 21 3'
_symmetry_Int_Tables_number 198
loop_
_symmetry_equiv_pos_site_id
_symmetry_equiv_pos_as_xyz
1 x,y,z
2 1/2-x,-y,1/2+z
3 -x,1/2+y,1/2-z
4 1/2+x,1/2-y,-z
5 z,x,y
6 1/2+z,1/2-x,-y
7 1/2-z,-x,1/2+y
8 -z,1/2+x,1/2-y
9 y,z,x
10 -y,1/2+z,1/2-x
11 1/2+y,1/2-z,-x
12 1/2-y,-z,1/2+x
_cell_length_a 15.4804(4)
_cell_length_b 15.4804(4)
_cell_length_c 15.4804(4)
_cell_angle_alpha 90
_cell_angle_beta 90
_cell_angle_gamma 90
_cell_formula_units_Z 4
loop_
_atom_type_symbol
_atom_type_radius_bond
C 0.68
H 0.23
Cl 0.99
Mn 1.35
P 1.05
loop_
_atom_site_label
_atom_site_type_symbol
_atom_site_fract_x
_atom_site_fract_y
_atom_site_fract_z
Mn1 Mn -0.05916(2) -0.05916(2) -0.05916(2)
Cl1 Cl 0.01840(4) -0.18693(4) -0.09450(5)
P1 P 0.00829(4) -0.49171(4) -0.00829(4)
Cl2 Cl 0.02855(4) 0.02855(4) 0.02855(4)
C1 C -0.1146(2) -0.3626(2) -0.0234(2)
H1 H -0.0689(2) -0.3264(2) -0.0379(2)
C2 C 0.0752(2) -0.4248(2) -0.0752(2)
C3 C -0.1688(2) -0.5032(2) 0.0159(2)
H2 H -0.1595(2) -0.5617(2) 0.0262(2)
C4 C -0.0998(2) -0.4500(2) -0.0069(2)
C5 C -0.2653(2) -0.3831(2) 0.0060(3)
H3 H -0.3207(2) -0.3605(2) 0.0107(3)
C6 C -0.1978(2) -0.3304(2) -0.0181(3)
H4 H -0.2082(2) -0.2726(2) -0.0310(3)
C7 C -0.2511(2) -0.4692(2) 0.0234(2)
H5 H -0.2968(2) -0.5044(2) 0.0400(2)
C8 C -0.4156(2) -0.7573(2) -0.3301(2)
H6 H -0.3723(2) -0.7723(2) -0.3690(2)
C9 C -0.5021(3) -0.7625(3) -0.3547(2)
H7 H -0.5165(3) -0.7815(3) -0.4099(2)
C10 C -0.3943(2) -0.7297(2) -0.2480(2)
C11 C -0.5657(2) -0.7397(2) -0.2978(2)
H8 H -0.6233(2) -0.7433(2) -0.3145(2)
C12 C -0.4602(2) -0.7065(2) -0.1907(2)
H9 H -0.4464(2) -0.6877(2) -0.1353(2)
C13 C -0.5451(2) -0.7113(2) -0.2157(2)
H10 H -0.5887(2) -0.6954(2) -0.1776(2)
C14 C -0.2162(2) -0.7838(2) -0.2838(2)
P2 P -0.28299(4) -0.71701(4) -0.21701(4)
H11 H 0.0769(23) -0.3723(23) -0.0553(22)
H12 H -0.2192(30) -0.7595(29) -0.3389(28)
Cl1D Cl -0.09450(4) 0.01840(4) -0.18693(5)
Cl1H Cl -0.18693(4) -0.09450(4) 0.01840(5)
H11G H 0.0553(23) -0.4231(23) -0.1277(22)
H11J H 0.1277(23) -0.4447(23) -0.0769(22)
C4G C 0.0069(2) -0.5998(2) -0.0500(2)
C1G C 0.0234(2) -0.6146(2) -0.1374(2)
H1G H 0.0379(2) -0.5689(2) -0.1736(2)
C6G C 0.0181(2) -0.6978(2) -0.1696(3)
C5G C -0.0060(2) -0.7653(2) -0.1169(3)
H3G H -0.0107(2) -0.8207(2) -0.1395(3)
C7G C -0.0234(2) -0.7511(2) -0.0308(2)
C3G C -0.0159(2) -0.6688(2) 0.0032(2)
H2G H -0.0262(2) -0.6595(2) 0.0617(2)
H5G H -0.0400(2) -0.7968(2) 0.0044(2)
H4G H 0.0310(2) -0.7082(2) -0.2274(3)
C4J C 0.0500(2) -0.4931(2) 0.0998(2)
C1J C 0.1374(2) -0.4766(2) 0.1146(2)
H1J H 0.1736(2) -0.4621(2) 0.0689(2)
C6J C 0.1696(2) -0.4819(2) 0.1978(3)
C5J C 0.1169(2) -0.5060(2) 0.2653(3)
H3J H 0.1395(2) -0.5107(2) 0.3207(3)
C7J C 0.0308(2) -0.5234(2) 0.2511(2)
C3J C -0.0032(2) -0.5159(2) 0.1688(2)
H2J H -0.0617(2) -0.5262(2) 0.1595(2)
H5J H -0.0044(2) -0.5400(2) 0.2968(2)
H4J H 0.2274(2) -0.4690(2) 0.2082(3)
C10I C -0.2703(2) -0.7480(2) -0.1057(2)
C8I C -0.2427(2) -0.8301(2) -0.0844(2)
H6I H -0.2277(2) -0.8690(2) -0.1277(2)
C9I C -0.2375(3) -0.8547(3) 0.0021(2)
H7I H -0.2185(3) -0.9099(3) 0.0165(2)
C11I C -0.2603(2) -0.7978(2) 0.0657(2)
H8I H -0.2567(2) -0.8145(2) 0.1233(2)
C13I C -0.2887(2) -0.7157(2) 0.0451(2)
C12I C -0.2935(2) -0.6907(2) -0.0398(2)
H9I H -0.3123(2) -0.6353(2) -0.0536(2)
H10I H -0.3046(2) -0.6776(2) 0.0887(2)
C10F C -0.2520(2) -0.6057(2) -0.2297(2)
C8F C -0.1699(2) -0.5844(2) -0.2573(2)
H6F H -0.1310(2) -0.6277(2) -0.2723(2)
C9F C -0.1453(3) -0.4979(3) -0.2625(2)
H7F H -0.0901(3) -0.4835(3) -0.2815(2)
C11F C -0.2022(2) -0.4343(2) -0.2397(2)
H8F H -0.1855(2) -0.3767(2) -0.2433(2)
C13F C -0.2843(2) -0.4549(2) -0.2113(2)
C12F C -0.3093(2) -0.5398(2) -0.2065(2)
H9F H -0.3647(2) -0.5536(2) -0.1877(2)
H10F H -0.3224(2) -0.4113(2) -0.1954(2)
H12F H -0.1611(30) -0.7808(29) -0.2595(28)
H12I H -0.2405(30) -0.8389(29) -0.2808(28)
#END

data_CSD_CIF_IBIXIA01
_audit_creation_date 2011-12-12
_audit_creation_method CSD-ConQuest-V1
_database_code_CSD IBIXIA01
_database_code_depnum_ccdc_archive 'CCDC 830617'
_chemical_formula_sum 'C38 H36 Cl4 Mn1 P2'
_chemical_formula_moiety
;
2(C19 H18 P1 1+),Cl4 Mn1 2-
;
_journal_coden_Cambridge 1078
_journal_year 2011
_journal_name_full 'CSD Communication(Private Communication) '
loop_
_publ_author_name
"A.S.Batsanov"
"S.Takara"
_chemical_name_systematic
;
bis(Triphenyl(methyl)phosphonium) tetrachloro-manganese(ii)
;
_cell_volume   3754.011
_exptl_crystal_colour 'colorless'
_exptl_crystal_density_diffrn 1.329
_exptl_special_details
;
Absolute configuration
contribution from Durham University, Queen's Campus, Stockton,University 
Boulevard, Thornaby,Stockton-on-Tees TS17 6BH,UK
;
_diffrn_ambient_temperature 280
#These two values have been output from a single CSD field.
_refine_ls_R_factor_gt 0.0293
_refine_ls_wR_factor_gt 0.0293
_symmetry_cell_setting cubic
_symmetry_space_group_name_H-M 'P 21 3'
_symmetry_Int_Tables_number 198
loop_
_symmetry_equiv_pos_site_id
_symmetry_equiv_pos_as_xyz
1 x,y,z
2 1/2-x,-y,1/2+z
3 -x,1/2+y,1/2-z
4 1/2+x,1/2-y,-z
5 z,x,y
6 1/2+z,1/2-x,-y
7 1/2-z,-x,1/2+y
8 -z,1/2+x,1/2-y
9 y,z,x
10 -y,1/2+z,1/2-x
11 1/2+y,1/2-z,-x
12 1/2-y,-z,1/2+x
_cell_length_a 15.5417(5)
_cell_length_b 15.5417(5)
_cell_length_c 15.5417(5)
_cell_angle_alpha 90
_cell_angle_beta 90
_cell_angle_gamma 90
_cell_formula_units_Z 4
loop_
_atom_type_symbol
_atom_type_radius_bond
C 0.68
H 0.23
Cl 0.99
Mn 1.61
P 1.05
loop_
_atom_site_label
_atom_site_type_symbol
_atom_site_fract_x
_atom_site_fract_y
_atom_site_fract_z
Mn1 Mn 0.942303(14) 0.557697(14) 0.442303(14)
Cl1 Cl 0.90680(3) 0.48059(3) 0.31479(2)
Cl2 Cl 1.02972(3) 0.47028(3) 0.52972(3)
P1 P 0.99037(2) 0.49037(2) 0.00963(2)
C1 C 0.92377(11) 0.42377(11) 0.07623(11)
H1 H 0.8648(16) 0.4448(16) 0.0828(18)
C2 C 0.99187(10) 0.59774(10) 0.05117(10)
C3 C 0.97544(16) 0.61283(13) 0.13801(11)
H2 H 0.96030 0.56730 0.17380
C4 C 0.98141(19) 0.69562(16) 0.17050(14)
H3 H 0.96910 0.70550 0.22820
C5 C 1.00450(17) 0.76311(14) 0.11799(16)
H4 H 1.01010 0.81810 0.14080
C6 C 1.02015(17) 0.74885(13) 0.03245(15)
H5 H 1.03550 0.79470 -0.00290
C7 C 1.01326(14) 0.66700(12) -0.00174(13)
H6 H 1.02280 0.65830 -0.06020
P2 P 0.78281(2) 0.78281(2) 0.78281(2)
C8 C 0.71610(11) 0.71610(11) 0.71610(11)
C9 C 0.76973(10) 0.75264(10) 0.89346(11)
C10 C 0.74160(15) 0.67063(12) 0.91554(16)
H7 H 0.72630 0.63170 0.87270
C11 C 0.73582(18) 0.64750(15) 1.00171(18)
H8 H 0.71650 0.59280 1.01640
C12 C 0.75871(15) 0.70395(15) 1.06457(15)
H9 H 0.75570 0.68740 1.12200
C13 C 0.78620(15) 0.78498(15) 1.04355(13)
H10 H 0.80140 0.82340 1.08680
C14 C 0.79173(14) 0.80968(12) 0.95847(12)
H11 H 0.81000 0.86500 0.94470
H12 H 0.6643(17) 0.716(2) 0.7337(19)
Cl1E Cl 0.81479(3) 0.59320(3) 0.51941(2)
Cl1K Cl 1.01941(3) 0.68521(3) 0.40680(2)
H1G H 0.9172(16) 0.3648(16) 0.0552(18)
H1J H 0.9448(16) 0.4172(16) 0.1352(18)
C2G C 0.94883(10) 0.49187(10) -0.09774(10)
C2J C 1.09774(10) 0.44883(10) 0.00813(10)
C3G C 0.86199(16) 0.47544(13) -0.11283(11)
C3J C 1.11283(16) 0.36199(13) 0.02456(11)
H2G H 0.82620 0.46030 -0.06730
H2J H 1.06730 0.32620 0.03970
C4G C 0.82950(19) 0.48141(16) -0.19562(14)
C4J C 1.19562(19) 0.32950(16) 0.01859(14)
H3G H 0.77180 0.46910 -0.20550
H3J H 1.20550 0.27180 0.03090
C5G C 0.88201(17) 0.50450(14) -0.26311(16)
C5J C 1.26311(17) 0.38201(14) -0.00450(16)
H4G H 0.85920 0.51010 -0.31810
H4J H 1.31810 0.35920 -0.01010
C6G C 0.96755(17) 0.52015(13) -0.24885(15)
C6J C 1.24885(17) 0.46755(13) -0.02015(15)
H5G H 1.00290 0.53550 -0.29470
H5J H 1.29470 0.50290 -0.03550
C7G C 1.00174(14) 0.51326(12) -0.16700(13)
C7J C 1.16700(14) 0.50174(12) -0.01326(13)
H6G H 1.06020 0.52280 -0.15830
H6J H 1.15830 0.56020 -0.02280
C9D C 0.89346(10) 0.76973(10) 0.75264(11)
C9H C 0.75264(10) 0.89346(10) 0.76973(11)
C10D C 0.91554(15) 0.74160(12) 0.67063(16)
C10H C 0.67063(15) 0.91554(12) 0.74160(16)
H7D H 0.87270 0.72630 0.63170
H7H H 0.63170 0.87270 0.72630
C11D C 1.00171(18) 0.73582(15) 0.64750(18)
C11H C 0.64750(18) 1.00171(15) 0.73582(18)
H8D H 1.01640 0.71650 0.59280
H8H H 0.59280 1.01640 0.71650
C12D C 1.06457(15) 0.75871(15) 0.70395(15)
C12H C 0.70395(15) 1.06457(15) 0.75871(15)
H9D H 1.12200 0.75570 0.68740
H9H H 0.68740 1.12200 0.75570
C13D C 1.04355(15) 0.78620(15) 0.78498(13)
C13H C 0.78498(15) 1.04355(15) 0.78620(13)
H10D H 1.08680 0.80140 0.82340
H10H H 0.82340 1.08680 0.80140
C14D C 0.95847(14) 0.79173(12) 0.80968(12)
C14H C 0.80968(14) 0.95847(12) 0.79173(12)
H11D H 0.94470 0.81000 0.86500
H11H H 0.86500 0.94470 0.81000
H12D H 0.7337(17) 0.6643(20) 0.7160(19)
H12H H 0.7160(17) 0.7337(20) 0.6643(19)
#END

data_CSD_CIF_IMETNI01
_audit_creation_date 2020-04-14
_audit_creation_method CSD-ConQuest-V1
_database_code_CSD IMETNI01
_database_code_depnum_ccdc_archive 'CCDC 1996874'
_chemical_formula_sum 'C12 H30 I2 N4 Ni1'
_chemical_formula_moiety
;
C12 H30 I1 N4 Ni1 1+,I1 1-
;
_journal_coden_Cambridge 1078
_journal_year 2020
_journal_name_full 'CSD Communication(Private Communication) '
loop_
_publ_author_name
"R.Guillot"
"T.Mallah"
"Yiting Wang"
_chemical_name_systematic
;
(N^1^,N^1^-bis[2-(dimethylamino)ethyl]-N^2^,N^2^-dimethylethane-1,2-diamine)-i
odo-nickel(ii) iodide
;
_cell_volume   1898.793
_exptl_crystal_colour 'orange'
_exptl_crystal_density_diffrn 1.899
_exptl_crystal_description 'block'
_diffrn_ambient_temperature 100
#These two values have been output from a single CSD field.
_refine_ls_R_factor_gt 0.0142
_refine_ls_wR_factor_gt 0.0142
_symmetry_cell_setting cubic
_symmetry_space_group_name_H-M 'P 21 3'
_symmetry_Int_Tables_number 198
loop_
_symmetry_equiv_pos_site_id
_symmetry_equiv_pos_as_xyz
1 x,y,z
2 1/2-x,-y,1/2+z
3 -x,1/2+y,1/2-z
4 1/2+x,1/2-y,-z
5 z,x,y
6 1/2+z,1/2-x,-y
7 1/2-z,-x,1/2+y
8 -z,1/2+x,1/2-y
9 y,z,x
10 -y,1/2+z,1/2-x
11 1/2+y,1/2-z,-x
12 1/2-y,-z,1/2+x
_cell_length_a 12.3830(3)
_cell_length_b 12.3830(3)
_cell_length_c 12.3830(3)
_cell_angle_alpha 90
_cell_angle_beta 90
_cell_angle_gamma 90
_cell_formula_units_Z 4
loop_
_atom_type_symbol
_atom_type_radius_bond
C 0.68
H 0.23
I 1.40
N 0.68
Ni 1.24
loop_
_atom_site_label
_atom_site_type_symbol
_atom_site_fract_x
_atom_site_fract_y
_atom_site_fract_z
C1 C 0.2350(3) 0.5750(2) 0.8632(2)
H1 H 0.22931 0.51793 0.80749
H2 H 0.20591 0.54582 0.93171
C2 C 0.3519(2) 0.6058(3) 0.8783(2)
H3 H 0.35891 0.65454 0.94130
H4 H 0.39533 0.54024 0.89255
C3 C 0.4999(3) 0.7096(3) 0.8055(3)
H5 H 0.49133 0.76298 0.86334
H6 H 0.52916 0.74503 0.74108
H7 H 0.54969 0.65282 0.82927
C4 C 0.4111(3) 0.5806(3) 0.6923(3)
H8 H 0.46551 0.52803 0.71560
H9 H 0.43642 0.61760 0.62709
H10 H 0.34320 0.54306 0.67665
N1 N 0.17040(19) 0.67040(19) 0.82960(19)
N2 N 0.3932(2) 0.6611(2) 0.7796(2)
Ni1 Ni 0.26843(3) 0.76843(3) 0.73157(3)
I1 I 0.39161(2) 0.89161(2) 0.60839(2)
I2 I 0.69022(2) 0.19022(2) 0.30978(2)
C1G C 0.1368(3) 0.7350(2) 0.9250(2)
H1G H 0.19251 0.72931 0.98207
H2G H 0.06829 0.70591 0.95418
C2G C 0.1217(2) 0.8519(3) 0.8942(2)
H3G H 0.05870 0.85891 0.84546
H4G H 0.10745 0.89533 0.95976
C3G C 0.1945(3) 0.9999(3) 0.7904(3)
H5G H 0.13666 0.99133 0.73702
H6G H 0.25892 1.02916 0.75497
H7G H 0.17073 1.04969 0.84718
C4G C 0.3077(3) 0.9111(3) 0.9194(3)
H8G H 0.28440 0.96551 0.97197
H9G H 0.37291 0.93642 0.88240
H10G H 0.32335 0.84320 0.95694
N2G N 0.2204(2) 0.8932(2) 0.8389(2)
C1J C 0.0750(3) 0.6368(2) 0.7650(2)
H1J H 0.01793 0.69251 0.77069
H2J H 0.04582 0.56829 0.79409
C2J C 0.1058(2) 0.6217(3) 0.6481(2)
H3J H 0.15454 0.55870 0.64109
H4J H 0.04024 0.60745 0.60467
C3J C 0.2096(3) 0.6945(3) 0.5001(3)
H5J H 0.26298 0.63666 0.50867
H6J H 0.24503 0.75892 0.47084
H7J H 0.15282 0.67073 0.45031
C4J C 0.0806(3) 0.8077(3) 0.5889(3)
H8J H 0.02803 0.78440 0.53449
H9J H 0.11760 0.87291 0.56358
H10J H 0.04306 0.82335 0.65680
N2J N 0.1611(2) 0.7204(2) 0.6068(2)
#END

data_CSD_CIF_ITAWAC
_audit_creation_date 2011-08-15
_audit_creation_method CSD-ConQuest-V1
_database_code_CSD ITAWAC
_database_code_depnum_ccdc_archive 'CCDC 770685'
_chemical_formula_sum 'C37.18 H28.18 Br3 Cl3.54 Ir1 N3'
_chemical_formula_moiety
;
C36 H27 Br3 Ir1 N3,1.18(C1 H1 Cl3)
;
_journal_coden_Cambridge 9
_journal_volume 50
_journal_year 2011
_journal_page_first 806
_journal_name_full 'Inorg.Chem. '
loop_
_publ_author_name
"S.Aoki"
"Y.Matsuo"
"S.Ogura"
"H.Ohwada"
"Y.Hisamatsu"
"S.Moromizato"
"M.Shiro"
"M.Kitamura"
_chemical_name_systematic
;
fac-tris(4-bromo-5-methyl-2-(pyridin-2-yl)phenyl)-iridium(iii) chloroform 
solvate
;
_cell_volume  11433.660
_exptl_crystal_colour 'yellow'
_exptl_crystal_density_diffrn 1.872
_exptl_special_details
;
Absolute configuration

;
_exptl_crystal_description 'platelet'
_diffrn_ambient_temperature 120.1
#These two values have been output from a single CSD field.
_refine_ls_R_factor_gt 0.035
_refine_ls_wR_factor_gt 0.035
_symmetry_cell_setting cubic
_symmetry_space_group_name_H-M 'P 21 3'
_symmetry_Int_Tables_number 198
loop_
_symmetry_equiv_pos_site_id
_symmetry_equiv_pos_as_xyz
1 x,y,z
2 y,z,x
3 z,x,y
4 1/2+x,1/2-y,-z
5 1/2+y,1/2-z,-x
6 1/2+z,1/2-x,-y
7 -y,1/2+z,1/2-x
8 -z,1/2+x,1/2-y
9 1/2-z,-x,1/2+y
10 1/2-x,-y,1/2+z
11 1/2-y,-z,1/2+x
12 -x,1/2+y,1/2-z
_cell_length_a 22.5283(4)
_cell_length_b 22.5283(4)
_cell_length_c 22.5283(4)
_cell_angle_alpha 90
_cell_angle_beta 90
_cell_angle_gamma 90
_cell_formula_units_Z 12
loop_
_atom_type_symbol
_atom_type_radius_bond
C 0.68
H 0.23
Br 1.21
Cl 0.99
Ir 1.41
N 0.68
loop_
_atom_site_label
_atom_site_type_symbol
_atom_site_fract_x
_atom_site_fract_y
_atom_site_fract_z
Ir1 Ir 0.716743(11) 0.783258(11) 0.216743(11)
Ir2 Ir 0.916447(11) 0.416447(11) 0.083553(11)
Ir3 Ir 0.503475(11) 0.496525(11) -0.003475(11)
Br1 Br 0.79382(6) 0.81536(7) -0.06971(5)
Br2 Br 1.19610(4) 0.33171(5) 0.03019(6)
Br3 Br 0.59116(5) 0.24211(4) 0.12685(4)
N1 N 0.7463(3) 0.6980(3) 0.1885(2)
N2 N 0.9099(3) 0.3238(2) 0.0666(2)
N3 N 0.4279(3) 0.4635(3) 0.0415(3)
C1 C 0.7504(3) 0.6487(3) 0.2225(4)
H1 H 0.73660 0.65040 0.26240
C2 C 0.7737(3) 0.5963(3) 0.2015(3)
H2 H 0.77600 0.56260 0.22670
C3 C 0.7939(4) 0.5927(4) 0.1436(4)
H3 H 0.81080 0.55710 0.12860
C4 C 0.7886(3) 0.6426(3) 0.1083(3)
H4 H 0.80150 0.64100 0.06820
C5 C 0.7646(3) 0.6954(3) 0.1303(3)
C6 C 0.7591(3) 0.7505(4) 0.0983(3)
C7 C 0.7742(4) 0.7559(4) 0.0390(4)
H5 H 0.78860 0.72250 0.01770
C8 C 0.7684(4) 0.8099(4) 0.0110(4)
C9 C 0.7489(4) 0.8600(4) 0.0411(4)
C10 C 0.7329(4) 0.8543(4) 0.1008(4)
H6 H 0.71810 0.88820 0.12110
C11 C 0.7379(3) 0.8004(3) 0.1316(4)
C12 C 0.7432(5) 0.9204(5) 0.0107(5)
H7 H 0.71780 0.91650 -0.02440
H8 H 0.78260 0.93430 -0.00130
H9 H 0.72550 0.94890 0.03830
C13 C 0.8600(3) 0.2916(3) 0.0673(3)
H10 H 0.82440 0.31040 0.07990
C14 C 0.8571(4) 0.2342(4) 0.0512(4)
H11 H 0.82060 0.21310 0.05280
C15 C 0.9094(4) 0.2063(3) 0.0318(3)
H12 H 0.90900 0.16600 0.01930
C16 C 0.9615(3) 0.2389(3) 0.0313(4)
H13 H 0.99750 0.22070 0.01890
C17 C 0.9616(3) 0.2983(3) 0.0489(3)
C18 C 1.0133(3) 0.3375(3) 0.0508(3)
C19 C 1.0707(4) 0.3183(4) 0.0391(4)
H14 H 1.07790 0.27820 0.02820
C20 C 1.1172(3) 0.3582(4) 0.0436(4)
C21 C 1.1096(3) 0.4168(4) 0.0610(3)
C22 C 1.0515(3) 0.4347(3) 0.0727(3)
H15 H 1.04470 0.47470 0.08410
C23 C 1.1591(4) 0.4607(4) 0.0652(4)
H16 H 1.14330 0.49910 0.07800
H17 H 1.17800 0.46490 0.02630
H18 H 1.18840 0.44670 0.09420
C24 C 1.0032(3) 0.3970(3) 0.0684(3)
C25 C 0.3742(3) 0.4893(3) 0.0443(3)
H19 H 0.36840 0.52600 0.02430
C26 C 0.3269(4) 0.4651(4) 0.0750(4)
H20 H 0.28990 0.48520 0.07640
C27 C 0.3343(4) 0.4114(4) 0.1035(3)
H21 H 0.30200 0.39300 0.12360
C28 C 0.3899(3) 0.3848(3) 0.1022(3)
H22 H 0.39620 0.34860 0.12290
C29 C 0.4359(3) 0.4103(3) 0.0711(3)
C30 C 0.4970(3) 0.3869(3) 0.0648(3)
C31 C 0.5131(3) 0.3340(3) 0.0928(3)
H23 H 0.48520 0.31260 0.11610
C32 C 0.5703(4) 0.3135(3) 0.0860(4)
C33 C 0.6107(3) 0.3432(4) 0.0522(4)
C34 C 0.5930(3) 0.3956(4) 0.0231(3)
H24 H 0.62090 0.41540 -0.00140
C35 C 0.5358(3) 0.4199(3) 0.0288(3)
C36 C 0.6756(4) 0.3227(4) 0.0467(5)
H25 H 0.69460 0.32420 0.08580
H26 H 0.69680 0.34910 0.01930
H27 H 0.67680 0.28200 0.03150
C37 C 0.1257(5) 0.1257(5) 0.1257(5)
H28 H 0.10010 0.10010 0.10010
Cl1 Cl 0.20052(14) 0.10430(15) 0.11615(16)
C38 C 0.5444(19) -0.0444(19) 0.0444(19)
H29 H 0.51880 -0.01880 0.01880
Cl2 Cl 0.5949(5) 0.0018(5) 0.0795(5)
C39 C 0.7422(8) 0.0927(8) 0.1382(7)
H30 H 0.75440 0.06990 0.17430
Cl3 Cl 0.7407(2) 0.1692(2) 0.1544(2)
Cl4 Cl 0.6690(2) 0.0718(4) 0.1168(3)
Cl5 Cl 0.79312(15) 0.07858(16) 0.0792(2)
Br1E Br 0.43029(6) 0.70618(7) 0.18464(5)
Br1J Br 0.68464(6) 1.06971(7) 0.29382(5)
Br2D Br 0.83171(4) 0.46981(5) -0.19610(6)
Br2G Br 0.96981(4) 0.69610(5) 0.16829(6)
Br3F Br 0.75789(5) 0.62685(4) -0.09116(4)
Br3H Br 0.37315(5) 0.40884(4) -0.25789(4)
N1E N 0.6885(3) 0.7537(3) 0.3020(2)
N1J N 0.8020(3) 0.8115(3) 0.2463(2)
N2D N 0.8238(3) 0.4334(2) 0.0901(2)
N2G N 0.9334(3) 0.4099(2) 0.1762(2)
N3F N 0.5365(3) 0.5415(3) 0.0721(3)
N3H N 0.4585(3) 0.5721(3) -0.0365(3)
C1E C 0.7225(3) 0.7496(3) 0.3513(4)
C1J C 0.8513(3) 0.7775(3) 0.2504(4)
H1E H 0.76240 0.76340 0.34960
H1J H 0.84960 0.73760 0.23660
C2E C 0.7015(3) 0.7263(3) 0.4037(3)
C2J C 0.9037(3) 0.7985(3) 0.2737(3)
H2E H 0.72670 0.72400 0.43740
H2J H 0.93740 0.77330 0.27600
C3E C 0.6436(4) 0.7061(4) 0.4073(4)
C3J C 0.9073(4) 0.8564(4) 0.2939(4)
H3E H 0.62860 0.68920 0.44290
H3J H 0.94290 0.87140 0.31080
C4E C 0.6083(3) 0.7114(3) 0.3574(3)
C4J C 0.8574(3) 0.8917(3) 0.2886(3)
H4E H 0.56820 0.69850 0.35900
H4J H 0.85900 0.93180 0.30150
C5E C 0.6303(3) 0.7354(3) 0.3046(3)
C5J C 0.8046(3) 0.8697(3) 0.2646(3)
C6E C 0.5983(3) 0.7409(4) 0.2495(3)
C6J C 0.7495(3) 0.9017(4) 0.2591(3)
C7E C 0.5390(4) 0.7258(4) 0.2441(4)
C7J C 0.7441(4) 0.9610(4) 0.2742(4)
H5E H 0.51770 0.71140 0.27750
H5J H 0.77750 0.98230 0.28860
C8E C 0.5110(4) 0.7316(4) 0.1901(4)
C8J C 0.6901(4) 0.9890(4) 0.2684(4)
C9E C 0.5411(4) 0.7511(4) 0.1400(4)
C9J C 0.6400(4) 0.9589(4) 0.2489(4)
C10E C 0.6008(4) 0.7671(4) 0.1457(4)
C10J C 0.6457(4) 0.8992(4) 0.2329(4)
H6E H 0.62110 0.78190 0.11180
H6J H 0.61180 0.87890 0.21810
C11E C 0.6316(3) 0.7621(3) 0.1996(4)
C11J C 0.6996(3) 0.8684(3) 0.2379(4)
C12J C 0.5796(5) 0.9893(5) 0.2432(5)
C12E C 0.5107(5) 0.7568(5) 0.0796(5)
H7J H 0.58350 1.02440 0.21780
H7E H 0.47560 0.78220 0.08350
H8J H 0.56570 1.00130 0.28260
H8E H 0.49870 0.71740 0.06570
H9J H 0.55110 0.96170 0.22550
H9E H 0.53830 0.77450 0.05110
C13D C 0.7916(3) 0.4327(3) 0.1400(3)
C13G C 0.9327(3) 0.3600(3) 0.2084(3)
H10D H 0.81040 0.42010 0.17560
H10G H 0.92010 0.32440 0.18960
C14D C 0.7342(4) 0.4488(4) 0.1429(4)
C14G C 0.9488(4) 0.3571(4) 0.2658(4)
H11D H 0.71310 0.44720 0.17940
H11G H 0.94720 0.32060 0.28690
C15D C 0.7063(4) 0.4682(3) 0.0906(3)
C15G C 0.9682(4) 0.4094(3) 0.2937(3)
H12D H 0.66600 0.48070 0.09100
H12G H 0.98070 0.40900 0.33400
C16D C 0.7389(3) 0.4687(3) 0.0385(4)
C16G C 0.9687(3) 0.4615(3) 0.2611(4)
H13D H 0.72070 0.48110 0.00250
H13G H 0.98110 0.49750 0.27930
C17D C 0.7983(3) 0.4511(3) 0.0384(3)
C17G C 0.9511(3) 0.4616(3) 0.2017(3)
C18D C 0.8375(3) 0.4492(3) -0.0133(3)
C18G C 0.9492(3) 0.5133(3) 0.1625(3)
C19D C 0.8183(4) 0.4609(4) -0.0707(4)
C19G C 0.9609(4) 0.5707(4) 0.1817(4)
H14D H 0.77820 0.47180 -0.07790
H14G H 0.97180 0.57790 0.22180
C20D C 0.8582(3) 0.4564(4) -0.1172(4)
C20G C 0.9564(3) 0.6172(4) 0.1418(4)
C21D C 0.9168(3) 0.4390(4) -0.1096(3)
C21G C 0.9390(3) 0.6096(4) 0.0832(3)
C22D C 0.9347(3) 0.4273(3) -0.0515(3)
C22G C 0.9273(3) 0.5515(3) 0.0653(3)
H15D H 0.97470 0.41590 -0.04470
H15G H 0.91590 0.54470 0.02530
C23G C 0.9348(4) 0.6591(4) 0.0393(4)
C23D C 0.9607(4) 0.4348(4) -0.1591(4)
H16G H 0.92200 0.64330 0.00090
H16D H 0.99910 0.42200 -0.14330
H17G H 0.97370 0.67800 0.03510
H17D H 0.96490 0.47370 -0.17800
H18G H 0.90580 0.68840 0.05330
H18D H 0.94670 0.40580 -0.18840
C24D C 0.8970(3) 0.4316(3) -0.0032(3)
C24G C 0.9316(3) 0.5032(3) 0.1030(3)
C25F C 0.5107(3) 0.5443(3) 0.1258(3)
C25H C 0.4557(3) 0.6258(3) -0.0107(3)
H19F H 0.47400 0.52430 0.13160
H19H H 0.47570 0.63160 0.02600
C26F C 0.5349(4) 0.5750(4) 0.1731(4)
C26H C 0.4250(4) 0.6731(4) -0.0349(4)
H20F H 0.51480 0.57640 0.21010
H20H H 0.42360 0.71010 -0.01480
C27F C 0.5886(4) 0.6035(4) 0.1657(3)
C27H C 0.3965(4) 0.6657(4) -0.0886(3)
H21F H 0.60700 0.62360 0.19800
H21H H 0.37640 0.69800 -0.10700
C28F C 0.6152(3) 0.6022(3) 0.1101(3)
C28H C 0.3978(3) 0.6101(3) -0.1152(3)
H22F H 0.65140 0.62290 0.10380
H22H H 0.37710 0.60380 -0.15140
C29F C 0.5897(3) 0.5711(3) 0.0641(3)
C29H C 0.4289(3) 0.5641(3) -0.0897(3)
C30F C 0.6131(3) 0.5648(3) 0.0030(3)
C30H C 0.4352(3) 0.5030(3) -0.1131(3)
C31F C 0.6660(3) 0.5928(3) -0.0131(3)
C31H C 0.4072(3) 0.4869(3) -0.1660(3)
H23F H 0.68740 0.61610 0.01480
H23H H 0.38390 0.51480 -0.18740
C32F C 0.6865(4) 0.5860(3) -0.0703(4)
C32H C 0.4140(4) 0.4297(3) -0.1865(4)
C33F C 0.6568(3) 0.5522(4) -0.1107(4)
C33H C 0.4478(3) 0.3893(4) -0.1568(4)
C34F C 0.6044(3) 0.5231(4) -0.0930(3)
C34H C 0.4769(3) 0.4070(4) -0.1044(3)
H24F H 0.58460 0.49860 -0.12090
H24H H 0.50140 0.37910 -0.08460
C35F C 0.5801(3) 0.5288(3) -0.0358(3)
C35H C 0.4712(3) 0.4642(3) -0.0801(3)
C36H C 0.4533(4) 0.3244(4) -0.1773(5)
C36F C 0.6773(4) 0.5467(4) -0.1756(5)
H25H H 0.41420 0.30540 -0.17580
H25F H 0.67580 0.58580 -0.19460
H26H H 0.48070 0.30320 -0.15090
H26F H 0.65090 0.51930 -0.19680
H27H H 0.46850 0.32320 -0.21800
H27F H 0.71800 0.53150 -0.17680
Cl1A Cl 0.10430(14) 0.11615(15) 0.20052(16)
Cl1B Cl 0.11615(14) 0.20052(15) 0.10430(16)
Cl2E Cl 0.5795(5) -0.0949(5) -0.0018(5)
Cl2J Cl 0.4982(5) -0.0795(5) 0.0949(5)
#END

data_CSD_CIF_ITESEG
_audit_creation_date 2011-08-15
_audit_creation_method CSD-ConQuest-V1
_database_code_CSD ITESEG
_database_code_depnum_ccdc_archive 'CCDC 817466'
_chemical_formula_sum 'C24 H55 B2 Cu3 F4 N3 O18'
_chemical_formula_moiety
;
C24 H51 B1 Cu3 N3 O16 1+,B1 F4 1-,2(H2 O1)
;
_journal_coden_Cambridge 222
_journal_volume 40
_journal_year 2011
_journal_page_first 6378
_journal_name_full 'Dalton Trans. '
loop_
_publ_author_name
"A.M.Kirillov"
"Y.Y.Karabach"
"M.V.Kirillova"
"M.Haukka"
"A.J.L.Pombeiro"
_chemical_name_systematic
;
(\m~3~-tris((oxyethyl)((tris(hydroxymethyl)methyl)amino)ethoxy)borato)-tri-cop
per tetrafluoroborate dihydrate
;
_cell_volume   3325.964
_exptl_crystal_colour 'blue'
_exptl_crystal_density_diffrn 1.921
_exptl_crystal_description 'block'
_diffrn_ambient_temperature 120
#These two values have been output from a single CSD field.
_refine_ls_R_factor_gt 0.0389
_refine_ls_wR_factor_gt 0.0389
_symmetry_cell_setting cubic
_symmetry_space_group_name_H-M 'P 21 3'
_symmetry_Int_Tables_number 198
loop_
_symmetry_equiv_pos_site_id
_symmetry_equiv_pos_as_xyz
1 x,y,z
2 z,x,y
3 y,z,x
4 1/2-y,-z,1/2+x
5 1/2+z,1/2-x,-y
6 -y,1/2+z,1/2-x
7 1/2-z,-x,1/2+y
8 -z,1/2+x,1/2-y
9 1/2+y,1/2-z,-x
10 1/2-x,-y,1/2+z
11 1/2+x,1/2-y,-z
12 -x,1/2+y,1/2-z
_cell_length_a 14.927(5)
_cell_length_b 14.927(5)
_cell_length_c 14.927(5)
_cell_angle_alpha 90
_cell_angle_beta 90
_cell_angle_gamma 90
_cell_formula_units_Z 4
loop_
_atom_type_symbol
_atom_type_radius_bond
C 0.68
H 0.23
B 0.83
Cu 1.37
F 0.64
N 0.68
O 0.68
loop_
_atom_site_label
_atom_site_type_symbol
_atom_site_fract_x
_atom_site_fract_y
_atom_site_fract_z
Cu1 Cu 0.84746(3) 0.48746(3) 0.50645(3)
F1 F 0.4826(3) 0.4826(3) 0.4826(3)
F2 F 0.3574(4) 0.4783(5) 0.4143(5)
O1 O 0.8489(2) 0.3696(2) 0.6192(2)
H1 H 0.88180 0.35620 0.64780
O2 O 0.9398(2) 0.43198(18) 0.43147(18)
O3 O 0.79916(18) 0.57631(19) 0.39236(19)
O4 O 0.73570(18) 0.5117(2) 0.5822(2)
H2 H 0.70790 0.56270 0.59680
O5 O 0.79786(16) 0.70214(16) 0.29786(16)
O6 O 0.6721(3) 0.2068(3) 0.4923(3)
H3 H 0.63480 0.15920 0.47740
O7 O 0.63936(18) 0.63936(18) 0.63936(18)
O8 O 0.5751(2) 0.0751(2) 0.4249(2)
N1 N 0.7648(2) 0.3972(2) 0.4499(2)
C1 C 0.7158(3) 0.3590(3) 0.5289(3)
C2 C 0.7821(3) 0.3078(3) 0.5901(3)
H4 H 0.75000 0.28250 0.64240
H5 H 0.81010 0.25790 0.55660
C3 C 0.6393(3) 0.2949(3) 0.5063(4)
H6 H 0.59530 0.29460 0.55590
H7 H 0.60830 0.31590 0.45150
C4 C 0.6748(3) 0.4367(3) 0.5824(3)
H8 H 0.61710 0.45470 0.55510
H9 H 0.66320 0.41740 0.64470
C5 C 0.8206(3) 0.3311(3) 0.3979(3)
H10 H 0.80040 0.26950 0.41160
H11 H 0.81250 0.34150 0.33290
C6 C 0.9178(3) 0.3405(3) 0.4214(3)
H12 H 0.93030 0.30810 0.47800
H13 H 0.95510 0.31360 0.37360
C7 C 0.7047(3) 0.4477(3) 0.3869(3)
H14 H 0.65770 0.47900 0.42160
H15 H 0.67490 0.40500 0.34580
C8 C 0.7575(3) 0.5152(3) 0.3330(3)
H16 H 0.80350 0.48410 0.29680
H17 H 0.71710 0.54780 0.29180
B1 B 0.4295(4) 0.4295(4) 0.4295(4)
B2 B 0.8527(3) 0.6473(3) 0.3527(3)
Cu1C Cu 1.01254(3) 0.49355(3) 0.34746(3)
Cu1D Cu 1.00645(3) 0.65254(3) 0.51254(3)
F2B F 0.4783(4) 0.4143(5) 0.3574(5)
F2A F 0.4143(4) 0.3574(5) 0.4783(5)
O1C O 1.1304(2) 0.3808(2) 0.3489(2)
O1D O 1.1192(2) 0.6511(2) 0.6304(2)
H1C H 1.14380 0.35220 0.38180
H1D H 1.14780 0.61820 0.64380
O2C O 1.06802(20) 0.56853(18) 0.43980(18)
O2D O 0.93147(20) 0.56020(18) 0.56802(18)
O3D O 0.89236(18) 0.70084(19) 0.42369(19)
O3C O 0.92369(18) 0.60764(19) 0.29916(19)
O4D O 1.08220(18) 0.7643(2) 0.4883(2)
O4C O 0.98830(18) 0.4178(2) 0.2357(2)
H2D H 1.09680 0.79210 0.43730
H2C H 0.93730 0.40320 0.20790
O6D O 0.9923(3) 0.8279(3) 0.7932(3)
O6C O 1.2932(3) 0.5077(3) 0.1721(3)
H3D H 0.97740 0.86520 0.84080
H3C H 1.34080 0.52260 0.13480
N1C N 1.1028(2) 0.5501(2) 0.2648(2)
N1D N 0.9499(2) 0.7352(2) 0.6028(2)
C1C C 1.1410(3) 0.4711(3) 0.2158(3)
C1D C 1.0289(3) 0.7842(3) 0.6410(3)
C2C C 1.1922(3) 0.4099(3) 0.2821(3)
C2D C 1.0901(3) 0.7179(3) 0.6922(3)
H4D H 1.14240 0.75000 0.71750
H4C H 1.21750 0.35760 0.25000
H5D H 1.05660 0.68990 0.74210
H5C H 1.24210 0.44340 0.31010
C3D C 1.0063(3) 0.8607(3) 0.7051(4)
C3C C 1.2051(3) 0.4937(3) 0.1393(4)
H6D H 1.05590 0.90470 0.70540
H6C H 1.20540 0.44410 0.09530
H7D H 0.95150 0.89170 0.68410
H7C H 1.18410 0.54850 0.10830
C4D C 1.0824(3) 0.8252(3) 0.5633(3)
C4C C 1.0633(3) 0.4176(3) 0.1748(3)
H8D H 1.05510 0.88290 0.54530
H8C H 1.04530 0.44490 0.11710
H9D H 1.14470 0.83680 0.58260
H9C H 1.08260 0.35530 0.16320
C5D C 0.8979(3) 0.6794(3) 0.6689(3)
C5C C 1.1689(3) 0.6021(3) 0.3206(3)
H10D H 0.91160 0.69960 0.73050
H10C H 1.23050 0.58840 0.30040
H11D H 0.83290 0.68750 0.65850
H11C H 1.15850 0.66710 0.31250
C6D C 0.9214(3) 0.5822(3) 0.6595(3)
C6C C 1.1595(3) 0.5786(3) 0.4178(3)
H12D H 0.97800 0.56970 0.69190
H12C H 1.19190 0.52200 0.43030
H13D H 0.87360 0.54490 0.68640
H13C H 1.18640 0.62640 0.45510
C7D C 0.8869(3) 0.7953(3) 0.5523(3)
C7C C 1.0523(3) 0.6131(3) 0.2047(3)
H14D H 0.92160 0.84230 0.52100
H14C H 1.02100 0.57840 0.15770
H15D H 0.84580 0.82510 0.59500
H15C H 1.09500 0.65420 0.17490
C8D C 0.8330(3) 0.7425(3) 0.4848(3)
C8C C 0.9848(3) 0.6670(3) 0.2575(3)
H16D H 0.79680 0.69650 0.51590
H16C H 1.01590 0.70320 0.30350
H17D H 0.79180 0.78290 0.45220
H17C H 0.95220 0.70820 0.21710
#END

data_CSD_CIF_IWABOA
_audit_creation_date 2021-06-07
_audit_creation_method CSD-ConQuest-V1
_database_code_CSD IWABOA
_database_code_depnum_ccdc_archive 'CCDC 2079432'
_chemical_formula_sum 'C14 H26 Cl1 I1 N2 O4'
_chemical_formula_moiety
;
C14 H26 I1 N2 1+,Cl1 O4 1-
;
_journal_coden_Cambridge 222
_journal_volume 50
_journal_year 2021
_journal_page_first 8297
_journal_name_full 'Dalton Trans. '
loop_
_publ_author_name
"J.S.Ward"
"A.Frontera"
"K.Rissanen"
_chemical_name_systematic
;
bis(quinuclidine)iodonium perchlorate
;
_cell_volume   1727.438
_exptl_crystal_colour 'colorless'
_exptl_crystal_density_diffrn 1.725
_exptl_crystal_description 'block'
_exptl_crystal_preparation 'Re-crystallisation from solvent'
_diffrn_ambient_temperature 120.0
_diffrn_special_details
;
twin

;
#These two values have been output from a single CSD field.
_refine_ls_R_factor_gt 0.0234
_refine_ls_wR_factor_gt 0.0234
_symmetry_cell_setting cubic
_symmetry_space_group_name_H-M 'P 21 3'
_symmetry_Int_Tables_number 198
loop_
_symmetry_equiv_pos_site_id
_symmetry_equiv_pos_as_xyz
1 x,y,z
2 1/2-x,-y,1/2+z
3 -x,1/2+y,1/2-z
4 1/2+x,1/2-y,-z
5 z,x,y
6 1/2+z,1/2-x,-y
7 1/2-z,-x,1/2+y
8 -z,1/2+x,1/2-y
9 y,z,x
10 -y,1/2+z,1/2-x
11 1/2+y,1/2-z,-x
12 1/2-y,-z,1/2+x
_cell_length_a 11.9987(2)
_cell_length_b 11.9987(2)
_cell_length_c 11.9987(2)
_cell_angle_alpha 90
_cell_angle_beta 90
_cell_angle_gamma 90
_cell_formula_units_Z 4
loop_
_atom_type_symbol
_atom_type_radius_bond
C 0.68
H 0.23
Cl 0.99
I 1.40
N 0.68
O 0.68
loop_
_atom_site_label
_atom_site_type_symbol
_atom_site_fract_x
_atom_site_fract_y
_atom_site_fract_z
I1 I 0.74645(2) 0.24645(2) 0.25355(2)
N1 N 0.8572(3) 0.3572(3) 0.1428(3)
N2 N 0.6361(3) 0.1361(3) 0.3639(3)
C1 C 0.8768(3) 0.4664(3) 0.1989(3)
H1 H 0.89960 0.45400 0.27550
H2 H 0.80830 0.50930 0.19960
C2 C 0.9684(3) 0.5316(3) 0.1362(4)
H3 H 0.94790 0.60960 0.13040
H4 H 1.03840 0.52650 0.17620
C3 C 0.9806(5) 0.4806(5) 0.0194(5)
H5 H 1.02770 0.52770 -0.02770
C4 C 0.5647(3) 0.0640(3) 0.2919(3)
H6 H 0.61080 0.01020 0.25300
H7 H 0.52690 0.10940 0.23670
C5 C 0.4783(3) 0.0027(3) 0.3640(4)
H8 H 0.40510 0.03530 0.35320
H9 H 0.47490 -0.07530 0.34290
C6 C 0.5136(5) 0.0136(5) 0.4864(5)
H10 H 0.46640 -0.03360 0.53360
Cl1 Cl 0.73582(8) 0.76418(8) 0.23582(8)
O1 O 0.8050(2) 0.6950(2) 0.3050(2)
O2 O 0.7303(3) 0.7172(3) 0.1251(2)
C1G C 0.8011(3) 0.3768(3) 0.0336(3)
H1G H 0.72450 0.39960 0.04600
H2G H 0.80040 0.30830 -0.00930
C2G C 0.8638(3) 0.4684(3) -0.0316(4)
H3G H 0.86960 0.44790 -0.10960
H4G H 0.82380 0.53840 -0.02650
C4G C 0.7081(3) 0.0647(3) 0.4360(3)
H6G H 0.74700 0.11080 0.48980
H7G H 0.76330 0.02690 0.39060
C5G C 0.6360(3) -0.0217(3) 0.4973(4)
H8G H 0.64680 -0.09490 0.46470
H9G H 0.65710 -0.02510 0.57530
C1J C 0.9664(3) 0.3011(3) 0.1232(3)
H1J H 0.95400 0.22450 0.10040
H2J H 1.00930 0.30040 0.19170
C2J C 1.0316(3) 0.3638(3) 0.0316(4)
H3J H 1.10960 0.36960 0.05210
H4J H 1.02650 0.32380 -0.03840
C4J C 0.5640(3) 0.2081(3) 0.4353(3)
H6J H 0.51020 0.24700 0.38920
H7J H 0.60940 0.26330 0.47310
C5J C 0.5027(3) 0.1360(3) 0.5217(4)
H8J H 0.53530 0.14680 0.59490
H9J H 0.42470 0.15710 0.52510
O2E O 0.6251(3) 0.7697(3) 0.2828(2)
O2K O 0.7828(3) 0.8749(3) 0.2303(2)
#END

data_CSD_CIF_IYEMAB
_audit_creation_date 2011-10-18
_audit_creation_method CSD-ConQuest-V1
_database_code_CSD IYEMAB
_database_code_depnum_ccdc_archive 'CCDC 672504'
_chemical_formula_sum 'C14 H3 Fe4 K1 O12'
_chemical_formula_moiety
;
K1 1+,C14 H3 Fe4 O12 1-
;
_journal_coden_Cambridge 222
_journal_volume 40
_journal_year 2011
_journal_page_first 8685
_journal_name_full 'Dalton Trans. '
loop_
_publ_author_name
"C.Femoni"
"M.C.Iapalucci"
"G.Longoni"
"S.Zacchini"
_chemical_name_systematic
;
Potassium (\m~3~-ethylidyne)-dodecacarbonyl-tetra-iron
;
_cell_volume   1939.656
_exptl_crystal_colour 'dark red'
_exptl_crystal_density_diffrn 2.143
_exptl_crystal_description 'plate'
_diffrn_ambient_temperature 100
#These two values have been output from a single CSD field.
_refine_ls_R_factor_gt 0.027
_refine_ls_wR_factor_gt 0.027
_symmetry_cell_setting cubic
_symmetry_space_group_name_H-M 'P 21 3'
_symmetry_Int_Tables_number 198
loop_
_symmetry_equiv_pos_site_id
_symmetry_equiv_pos_as_xyz
1 x,y,z
2 1/2-x,-y,1/2+z
3 -x,1/2+y,1/2-z
4 1/2+x,1/2-y,-z
5 z,x,y
6 1/2+z,1/2-x,-y
7 1/2-z,-x,1/2+y
8 -z,1/2+x,1/2-y
9 y,z,x
10 -y,1/2+z,1/2-x
11 1/2+y,1/2-z,-x
12 1/2-y,-z,1/2+x
_cell_length_a 12.4712(3)
_cell_length_b 12.4712(3)
_cell_length_c 12.4712(3)
_cell_angle_alpha 90
_cell_angle_beta 90
_cell_angle_gamma 90
_cell_formula_units_Z 4
loop_
_atom_type_symbol
_atom_type_radius_bond
C 0.68
H 0.23
Fe 1.44
K 1.69
O 0.68
loop_
_atom_site_label
_atom_site_type_symbol
_atom_site_fract_x
_atom_site_fract_y
_atom_site_fract_z
Fe1 Fe 0.55837(3) 0.94163(3) 1.05837(3)
Fe2 Fe 0.49899(3) 0.98339(3) 0.86482(3)
C1 C 0.5301(2) 0.9205(2) 1.1959(2)
C2 C 0.4853(3) 1.0290(2) 0.7314(2)
C3 C 0.4018(2) 1.0982(2) 0.9018(2)
C4 C 0.4446(3) 0.8547(3) 0.8334(2)
C5 C 0.6392(2) 0.9548(2) 0.8552(2)
O1 O 0.51690(19) 0.90513(16) 1.28552(16)
O2 O 0.47494(17) 1.05650(17) 0.64384(17)
C6 C 0.3319(2) 1.1681(2) 0.8319(2)
H1 H 0.28440 1.12280 0.78870
O3 O 0.4103(2) 0.77301(18) 0.8105(2)
O4 O 0.72967(17) 0.94042(19) 0.83968(17)
K1 K 0.56352(5) 1.06352(5) 1.43648(5)
Fe2E Fe 0.36482(3) 1.00101(3) 1.01661(3)
Fe2K Fe 0.51661(3) 1.13518(3) 0.99899(3)
C1E C 0.6959(2) 0.9699(2) 1.0795(2)
C1K C 0.5795(2) 0.8041(2) 1.0301(2)
C2E C 0.2314(3) 1.0147(2) 0.9710(2)
C2K C 0.4710(3) 1.2686(2) 0.9853(2)
C4E C 0.3334(3) 1.0554(3) 1.1453(2)
C4K C 0.6453(3) 1.1666(3) 0.9446(2)
C5E C 0.3552(2) 0.8608(2) 1.0452(2)
C5K C 0.5452(2) 1.1448(2) 1.1392(2)
O1E O 0.78552(19) 0.98310(16) 1.09487(16)
O1K O 0.59487(19) 0.71448(16) 1.01690(16)
O2E O 0.14384(17) 1.02506(17) 0.94350(17)
O2K O 0.44350(17) 1.35616(17) 0.97494(17)
H1E H 0.28870 1.21560 0.87720
H1K H 0.37720 1.21130 0.78440
O3E O 0.3105(2) 1.08970(18) 1.22699(20)
O3K O 0.72699(20) 1.18950(18) 0.9103(2)
O4E O 0.33968(17) 0.77033(19) 1.05958(17)
O4K O 0.55958(17) 1.16032(19) 1.22967(17)
#END

data_CSD_CIF_IYUTON
_audit_creation_date 2016-11-11
_audit_creation_method CSD-ConQuest-V1
_database_code_CSD IYUTON
_database_code_depnum_ccdc_archive 'CCDC 1516473'
_chemical_formula_sum 'C15 H42 Br2 N6 Ni1 O3'
_chemical_formula_moiety
;
C15 H36 N6 Ni1 2+,3(H2 O1),2(Br1 1-)
;
_journal_coden_Cambridge 1078
_journal_year 2016
_journal_name_full 'CSD Communication(Private Communication) '
loop_
_publ_author_name
"T.Yoshida"
_chemical_name_systematic
;
tris(cyclopentane-1,2-diamine)-nickel(ii) dibromide trihydrate
;
_cell_volume   2363.905
_exptl_crystal_colour 'purple'
_exptl_crystal_density_diffrn 1.61
_exptl_crystal_description 'block'
_exptl_crystal_preparation 'water'
_diffrn_ambient_temperature 93
#These two values have been output from a single CSD field.
_refine_ls_R_factor_gt 0.0213
_refine_ls_wR_factor_gt 0.0213
_symmetry_cell_setting cubic
_symmetry_space_group_name_H-M 'P 21 3'
_symmetry_Int_Tables_number 198
loop_
_symmetry_equiv_pos_site_id
_symmetry_equiv_pos_as_xyz
1 x,y,z
2 1/2-x,-y,1/2+z
3 -x,1/2+y,1/2-z
4 1/2+x,1/2-y,-z
5 z,x,y
6 1/2+z,1/2-x,-y
7 1/2-z,-x,1/2+y
8 -z,1/2+x,1/2-y
9 y,z,x
10 -y,1/2+z,1/2-x
11 1/2+y,1/2-z,-x
12 1/2-y,-z,1/2+x
_cell_length_a 13.3212(5)
_cell_length_b 13.3212(5)
_cell_length_c 13.3212(5)
_cell_angle_alpha 90
_cell_angle_beta 90
_cell_angle_gamma 90
_cell_formula_units_Z 4
loop_
_atom_type_symbol
_atom_type_radius_bond
C 0.68
H 0.23
Br 1.21
N 0.68
Ni 1.24
O 0.68
loop_
_atom_site_label
_atom_site_type_symbol
_atom_site_fract_x
_atom_site_fract_y
_atom_site_fract_z
Br1 Br 0.87256(3) 0.87256(3) 0.87256(3)
Br2 Br 0.81179(3) 0.68821(3) 0.31179(3)
C1 C 0.6959(3) 1.0084(3) 0.6585(3)
H1 H 0.65490 1.05580 0.61740
C2 C 0.7582(3) 0.9443(3) 0.5873(3)
H2 H 0.80480 0.90180 0.62800
C3 C 0.6795(4) 0.8761(3) 0.5387(3)
H3 H 0.71080 0.81490 0.51050
H4 H 0.64280 0.91170 0.48470
C4 C 0.6086(4) 0.8501(4) 0.6279(5)
H5 H 0.53780 0.84920 0.60550
H6 H 0.62560 0.78340 0.65610
C5 C 0.6251(4) 0.9329(3) 0.7070(3)
H7 H 0.56060 0.96520 0.72470
H8 H 0.65540 0.90450 0.76860
N1 N 0.7636(2) 1.0678(3) 0.7221(2)
H9 H 0.79100 1.02890 0.77120
H10 H 0.73010 1.11970 0.75120
N2 N 0.8185(3) 1.0107(2) 0.5223(2)
H11 H 0.77960 1.03950 0.47410
H12 H 0.86900 0.97590 0.49210
Ni1 Ni 0.87767(4) 1.12233(4) 0.62233(4)
O1 O 0.9624(3) 0.8780(3) 0.3990(3)
C1F C 0.8415(3) 1.3041(3) 0.5084(3)
H1F H 0.88260 1.34510 0.55580
C2F C 0.9127(3) 1.2418(3) 0.4443(3)
H2F H 0.87200 1.19520 0.40180
C3F C 0.9613(4) 1.3205(3) 0.3761(3)
H3F H 0.98950 1.28920 0.31490
H4F H 1.01530 1.35720 0.41170
C4F C 0.8721(4) 1.3914(4) 0.3501(5)
H5F H 0.89450 1.46220 0.34920
H6F H 0.84390 1.37440 0.28340
C5F C 0.7930(4) 1.3749(3) 0.4329(3)
H7F H 0.77530 1.43940 0.46520
H8F H 0.73140 1.34460 0.40450
N1F N 0.7779(2) 1.2364(3) 0.5678(2)
H9F H 0.72880 1.20900 0.52890
H10F H 0.74880 1.26990 0.61970
N2F N 0.9777(3) 1.1815(2) 0.5107(2)
H11F H 1.02590 1.22040 0.53950
H12F H 1.00790 1.13100 0.47590
C1I C 0.9916(3) 1.1585(3) 0.8041(3)
H1I H 0.94420 1.11740 0.84510
C2I C 1.0557(3) 1.0873(3) 0.7418(3)
H2I H 1.09820 1.12800 0.69520
C3I C 1.1239(4) 1.0387(3) 0.8205(3)
H3I H 1.18510 1.01050 0.78920
H4I H 1.08830 0.98470 0.85720
C4I C 1.1499(4) 1.1279(4) 0.8914(5)
H5I H 1.15080 1.10550 0.96220
H6I H 1.21660 1.15610 0.87440
C5I C 1.0671(4) 1.2070(3) 0.8749(3)
H7I H 1.03480 1.22470 0.93940
H8I H 1.09550 1.26860 0.84460
N1I N 0.9322(2) 1.2221(3) 0.7364(2)
H9I H 0.97110 1.27120 0.70900
H10I H 0.88030 1.25120 0.76990
N2I N 0.9893(3) 1.0223(2) 0.6815(2)
H11I H 0.96050 0.97410 0.72040
H12I H 1.02410 0.99210 0.63100
#END

data_CSD_CIF_JENWOR
_audit_creation_date 2017-10-23
_audit_creation_method CSD-ConQuest-V1
_database_code_CSD JENWOR
_database_code_depnum_ccdc_archive 'CCDC 1564086'
_chemical_formula_sum 'C15 H39 Au1 Cl1 N4 P1 Si3 W1'
_chemical_formula_moiety
;
C15 H39 Au1 Cl1 N4 P1 Si3 W1
;
_journal_coden_Cambridge 155
_journal_volume 475
_journal_year 2017
_journal_page_first 47
_journal_name_full 'Inorg.Chim.Acta '
loop_
_publ_author_name
"G.Balazs"
"M.Hautmann"
"M.Seidl"
"M.Scheer"
_chemical_name_systematic
;
(\m-phosphido)-chloro-(N^2^-(trimethylsilyl)-N^1^,N^1^-bis{2-[(trimethylsilyl)
amino]ethyl}ethane-1,2-diamine)-gold-tungsten
;
_cell_volume   2604.263
_exptl_crystal_colour 'yellow'
_exptl_crystal_density_diffrn 2.058
_exptl_crystal_description 'block'
_diffrn_ambient_temperature 123.0
#These two values have been output from a single CSD field.
_refine_ls_R_factor_gt 0.0377
_refine_ls_wR_factor_gt 0.0377
_symmetry_cell_setting cubic
_symmetry_space_group_name_H-M 'P 21 3'
_symmetry_Int_Tables_number 198
loop_
_symmetry_equiv_pos_site_id
_symmetry_equiv_pos_as_xyz
1 x,y,z
2 1/2-x,-y,1/2+z
3 -x,1/2+y,1/2-z
4 1/2+x,1/2-y,-z
5 z,x,y
6 1/2+z,1/2-x,-y
7 1/2-z,-x,1/2+y
8 -z,1/2+x,1/2-y
9 y,z,x
10 -y,1/2+z,1/2-x
11 1/2+y,1/2-z,-x
12 1/2-y,-z,1/2+x
_cell_length_a 13.7582(1)
_cell_length_b 13.7582(1)
_cell_length_c 13.7582(1)
_cell_angle_alpha 90
_cell_angle_beta 90
_cell_angle_gamma 90
_cell_formula_units_Z 4
loop_
_atom_type_symbol
_atom_type_radius_bond
C 0.68
H 0.23
Au 1.36
Cl 0.99
N 0.68
P 1.05
Si 1.20
W 1.62
loop_
_atom_site_label
_atom_site_type_symbol
_atom_site_fract_x
_atom_site_fract_y
_atom_site_fract_z
Au1 Au 0.24094(3) 0.24094(3) 0.24094(3)
W1 W 0.42467(3) 0.42467(3) 0.42467(3)
P1 P 0.33413(18) 0.33413(18) 0.33413(18)
Cl1 Cl 0.14465(19) 0.14465(19) 0.14465(19)
Si1 Si 0.55763(19) 0.3833(2) 0.22811(19)
N1 N 0.5415(6) 0.4405(6) 0.3416(6)
N2 N 0.5203(7) 0.5203(7) 0.5203(7)
C1 C 0.4660(9) 0.4232(12) 0.1368(9)
H1 H 0.40360 0.39650 0.15320
H2 H 0.48490 0.40080 0.07350
H3 H 0.46210 0.49290 0.13670
C2 C 0.5556(10) 0.2479(9) 0.2402(9)
H4 H 0.58410 0.22960 0.30120
H5 H 0.59200 0.21940 0.18800
H6 H 0.48960 0.22530 0.23760
C3 C 0.6160(8) 0.5111(8) 0.3717(8)
H7 H 0.59960 0.57510 0.34710
H8 H 0.67860 0.49270 0.34500
C4 C 0.6796(8) 0.4197(12) 0.1784(9)
H9 H 0.68360 0.48930 0.17540
H10 H 0.68740 0.39310 0.11430
H11 H 0.72990 0.39520 0.22000
C5 C 0.6216(10) 0.5136(12) 0.4842(10)
H12 H 0.65250 0.45510 0.50860
H13 H 0.65900 0.56940 0.50570
Si1D Si 0.22811(19) 0.55763(20) 0.38330(19)
N1D N 0.3416(6) 0.5415(6) 0.4405(6)
C1D C 0.1368(9) 0.4660(12) 0.4232(9)
H1D H 0.15320 0.40360 0.39650
H2D H 0.07350 0.48490 0.40080
H3D H 0.13670 0.46210 0.49290
C2D C 0.2402(10) 0.5556(9) 0.2479(9)
H4D H 0.30120 0.58410 0.22960
H5D H 0.18800 0.59200 0.21940
H6D H 0.23760 0.48960 0.22530
C3D C 0.3717(8) 0.6160(8) 0.5111(8)
H7D H 0.34710 0.59960 0.57510
H8D H 0.34500 0.67860 0.49270
C4D C 0.1784(8) 0.6796(12) 0.4197(9)
H9D H 0.17540 0.68360 0.48930
H10D H 0.11430 0.68740 0.39310
H11D H 0.22000 0.72990 0.39520
C5D C 0.4842(10) 0.6216(12) 0.5136(10)
H12D H 0.50860 0.65250 0.45510
H13D H 0.50570 0.65900 0.56940
Si1H Si 0.38330(19) 0.22811(20) 0.55763(19)
N1H N 0.4405(6) 0.3416(6) 0.5415(6)
C1H C 0.4232(9) 0.1368(12) 0.4660(9)
H1H H 0.39650 0.15320 0.40360
H2H H 0.40080 0.07350 0.48490
H3H H 0.49290 0.13670 0.46210
C2H C 0.2479(10) 0.2402(9) 0.5556(9)
H4H H 0.22960 0.30120 0.58410
H5H H 0.21940 0.18800 0.59200
H6H H 0.22530 0.23760 0.48960
C3H C 0.5111(8) 0.3717(8) 0.6160(8)
H7H H 0.57510 0.34710 0.59960
H8H H 0.49270 0.34500 0.67860
C4H C 0.4197(8) 0.1784(12) 0.6796(9)
H9H H 0.48930 0.17540 0.68360
H10H H 0.39310 0.11430 0.68740
H11H H 0.39520 0.22000 0.72990
C5H C 0.5136(10) 0.4842(12) 0.6216(10)
H12H H 0.45510 0.50860 0.65250
H13H H 0.56940 0.50570 0.65900
#END

data_CSD_CIF_JIGMUH
_audit_creation_date 1991-09-27
_audit_creation_method CSD-ConQuest-V1
_database_code_CSD JIGMUH
_chemical_formula_sum 'C12 H24 Cl10 Na1 O3 Ta3'
_chemical_formula_moiety
;
C12 H24 Cl10 O3 Ta3 1-,Na1 1+
;
_journal_coden_Cambridge 9
_journal_volume 29
_journal_year 1990
_journal_page_first 5148
_journal_name_full 'Inorg.Chem. '
loop_
_publ_author_name
"E.Babaian-Kibala"
"F.A.Cotton"
"Maoyu Shang"
_chemical_name_systematic
;
Sodium 
(\m~3~-chloro)-tris((\m~2~-chloro)-dichloro-tetrahydrofuran-tantalum(iii))
;
_cell_volume   3567.550
_exptl_crystal_colour 'green'
_exptl_crystal_density_diffrn 2.116
_exptl_special_details
;
Air-sensitive

;
_diffrn_ambient_temperature 193.15
#These two values have been output from a single CSD field.
_refine_ls_R_factor_gt 0.0385
_refine_ls_wR_factor_gt 0.0385
_symmetry_cell_setting cubic
_symmetry_space_group_name_H-M 'P 21 3'
_symmetry_Int_Tables_number 198
loop_
_symmetry_equiv_pos_site_id
_symmetry_equiv_pos_as_xyz
1 x,y,z
2 z,x,y
3 y,z,x
4 1/2+x,1/2-y,-z
5 1/2+z,1/2-x,-y
6 1/2+y,1/2-z,-x
7 -x,1/2+y,1/2-z
8 -z,1/2+x,1/2-y
9 -y,1/2+z,1/2-x
10 1/2-x,-y,1/2+z
11 1/2-z,-x,1/2+y
12 1/2-y,-z,1/2+x
_cell_length_a 15.280(3)
_cell_length_b 15.280(3)
_cell_length_c 15.280(3)
_cell_angle_alpha 90
_cell_angle_beta 90
_cell_angle_gamma 90
_cell_formula_units_Z 4
loop_
_atom_type_symbol
_atom_type_radius_bond
C 0.68
Cl 0.99
Na 0.97
O 0.68
Ta 1.43
loop_
_atom_site_label
_atom_site_type_symbol
_atom_site_fract_x
_atom_site_fract_y
_atom_site_fract_z
Ta1 Ta 0.5981(1) 0.73300(9) 0.6019(1)
Cl1 Cl 0.5761(5) 0.57600 0.57600
Cl2 Cl 0.7535(5) 0.7581(6) 0.5966(6)
Cl3 Cl 0.5928(6) 0.8964(5) 0.5985(6)
Cl4 Cl 0.4397(5) 0.7375(6) 0.5962(7)
Na1 Na -0.9171(8) -0.91700 -0.91700
O1 O 0.590(2) 0.740(2) 0.459(2)
C1 C 0.536(2) 0.683(2) 0.403(3)
C2 C 0.553(3) 0.716(3) 0.313(3)
C3 C 0.609(4) 0.782(4) 0.314(4)
C4 C 0.641(3) 0.813(3) 0.420(3)
Ta1A Ta 0.6019(1) 0.59810(9) 0.7330(1)
Ta1B Ta 0.7330(1) 0.60190(9) 0.5981(1)
Cl2A Cl 0.5966(5) 0.7535(6) 0.7581(6)
Cl2B Cl 0.7581(5) 0.5966(6) 0.7535(6)
Cl3A Cl 0.5985(6) 0.5928(5) 0.8964(6)
Cl4A Cl 0.5962(5) 0.4397(6) 0.7375(7)
O1A O 0.459(2) 0.590(2) 0.740(2)
Cl3B Cl 0.8964(6) 0.5985(5) 0.5928(6)
Cl4B Cl 0.7375(5) 0.5962(6) 0.4397(7)
O1B O 0.740(2) 0.459(2) 0.590(2)
C1A C 0.403(2) 0.536(2) 0.683(3)
C4A C 0.420(3) 0.641(3) 0.813(3)
C1B C 0.683(2) 0.403(2) 0.536(3)
C4B C 0.813(3) 0.420(3) 0.641(3)
C2A C 0.313(3) 0.553(3) 0.716(3)
C3A C 0.314(4) 0.609(4) 0.782(4)
C2B C 0.716(3) 0.313(3) 0.553(3)
C3B C 0.782(4) 0.314(4) 0.609(4)
#END

data_CSD_CIF_JIHDUZ
_audit_creation_date 1991-08-27
_audit_creation_method CSD-ConQuest-V1
_database_code_CSD JIHDUZ
_chemical_formula_sum 'C6 H16 Cl1 N4 P1'
_chemical_formula_moiety
;
C6 H16 N4 P1 1+,Cl1 1-
;
_journal_coden_Cambridge 4
_journal_volume 112
_journal_year 1990
_journal_page_first 9421
_journal_name_full 'J.Am.Chem.Soc. '
loop_
_publ_author_name
"M.A.H.Laramay"
"J.G.Verkade"
_chemical_name_systematic
;
Phosphatranium chloride
;
_cell_volume    983.383
_exptl_crystal_colour 'colorless'
_exptl_crystal_density_diffrn 1.423
_exptl_special_details
;
Absolute configuration

;
_diffrn_ambient_temperature 248.15
#These two values have been output from a single CSD field.
_refine_ls_R_factor_gt 0.0204
_refine_ls_wR_factor_gt 0.0204
_symmetry_cell_setting cubic
_symmetry_space_group_name_H-M 'P 21 3'
_symmetry_Int_Tables_number 198
loop_
_symmetry_equiv_pos_site_id
_symmetry_equiv_pos_as_xyz
1 x,y,z
2 z,x,y
3 y,z,x
4 1/2+x,1/2-y,-z
5 1/2+z,1/2-x,-y
6 1/2+y,1/2-z,-x
7 -x,1/2+y,1/2-z
8 -z,1/2+x,1/2-y
9 -y,1/2+z,1/2-x
10 1/2-x,-y,1/2+z
11 1/2-z,-x,1/2+y
12 1/2-y,-z,1/2+x
_cell_length_a 9.9443(2)
_cell_length_b 9.9443(2)
_cell_length_c 9.9443(2)
_cell_angle_alpha 90
_cell_angle_beta 90
_cell_angle_gamma 90
_cell_formula_units_Z 4
loop_
_atom_type_symbol
_atom_type_radius_bond
C 0.68
H 0.23
Cl 0.99
N 0.68
P 1.05
loop_
_atom_site_label
_atom_site_type_symbol
_atom_site_fract_x
_atom_site_fract_y
_atom_site_fract_z
Cl1 Cl 0.87502(4) 0.87502 0.87502
P1 P 0.52059(4) 0.52059 0.52059
N1 N 0.6412(1) 0.64120 0.64120
N2 N 0.5241(2) 0.6498(1) 0.4177(1)
C1 C 0.6155(2) 0.7609(2) 0.4348(2)
C2 C 0.6310(2) 0.7791(2) 0.5844(2)
H1 H 0.446(2) 0.44600 0.44600
H2 H 0.499(2) 0.638(2) 0.356(2)
H3 H 0.702(2) 0.743(2) 0.392(2)
H4 H 0.585(2) 0.841(2) 0.399(2)
H5 H 0.547(2) 0.824(2) 0.624(2)
H6 H 0.702(2) 0.827(2) 0.609(2)
N2A N 0.4177(2) 0.5241(1) 0.6498(1)
N2B N 0.6498(2) 0.4177(1) 0.5241(1)
C2A C 0.5844(2) 0.6310(2) 0.7791(2)
C2B C 0.7791(2) 0.5844(2) 0.6310(2)
C1A C 0.4348(2) 0.6155(2) 0.7609(2)
H2A H 0.356(2) 0.499(2) 0.638(2)
C1B C 0.7609(2) 0.4348(2) 0.6155(2)
H2B H 0.638(2) 0.356(2) 0.499(2)
H5A H 0.624(2) 0.547(2) 0.824(2)
H6A H 0.609(2) 0.702(2) 0.827(2)
H5B H 0.824(2) 0.624(2) 0.547(2)
H6B H 0.827(2) 0.609(2) 0.702(2)
H3A H 0.392(2) 0.702(2) 0.743(2)
H4A H 0.399(2) 0.585(2) 0.841(2)
H3B H 0.743(2) 0.392(2) 0.702(2)
H4B H 0.841(2) 0.399(2) 0.585(2)
#END

data_CSD_CIF_JOFFAL
_audit_creation_date 1992-05-28
_audit_creation_method CSD-ConQuest-V1
_database_code_CSD JOFFAL
_database_code_depnum_ccdc_archive 'CCDC 1188139'
_chemical_formula_sum 'C18 H24 B1 Cl3 F4 Ru2'
_chemical_formula_moiety
;
C18 H24 Cl3 Ru2 1+,B1 F4 1-
;
_journal_coden_Cambridge 1087
_journal_volume 1
_journal_year 1988
_journal_page_first 1143
_journal_name_full 'Metalloorg.Khim.(Russ.)(Organomet.Chem.(USSR)) '
loop_
_publ_author_name
"Yu.T.Struchkov"
"A.S.Batsanov"
_chemical_name_systematic
;
tris(\m~2~-Chloro)-bis(\h^6^-mesitylene)-di-ruthenium(ii) tetrafluoroborate
;
_cell_volume   2342.569
_exptl_crystal_colour 'blood red'
_exptl_crystal_density_diffrn 1.8
_diffrn_ambient_temperature ?
_diffrn_special_details
;
The study was carried out at room temperature,in the range 283-303K

;
#These two values have been output from a single CSD field.
_refine_ls_R_factor_gt 0.048
_refine_ls_wR_factor_gt 0.048
_symmetry_cell_setting cubic
_symmetry_space_group_name_H-M 'P 21 3'
_symmetry_Int_Tables_number 198
loop_
_symmetry_equiv_pos_site_id
_symmetry_equiv_pos_as_xyz
1 x,y,z
2 z,x,y
3 y,z,x
4 1/2+x,1/2-y,-z
5 1/2+z,1/2-x,-y
6 1/2+y,1/2-z,-x
7 -x,1/2+y,1/2-z
8 -z,1/2+x,1/2-y
9 -y,1/2+z,1/2-x
10 1/2-x,-y,1/2+z
11 1/2-z,-x,1/2+y
12 1/2-y,-z,1/2+x
_cell_length_a 13.281(1)
_cell_length_b 13.281(1)
_cell_length_c 13.281(1)
_cell_angle_alpha 90
_cell_angle_beta 90
_cell_angle_gamma 90
_cell_formula_units_Z 4
loop_
_atom_type_symbol
_atom_type_radius_bond
C 0.68
B 0.83
Cl 0.99
F 0.64
Ru 1.40
loop_
_atom_site_label
_atom_site_type_symbol
_atom_site_fract_x
_atom_site_fract_y
_atom_site_fract_z
Ru1 Ru 0.16867(5) 0.16867 0.16867
Ru2 Ru 0.31110(5) 0.31110 0.31110
Cl1 Cl 0.2415(4) 0.3338(3) 0.1446(3)
C1 C 0.0138(8) 0.1409(9) 0.1382(9)
C2 C 0.0572(9) 0.1840(9) 0.0520(9)
C3 C 0.0139(9) 0.2819(12) 0.0076(10)
C4 C 0.4660(8) 0.3340(11) 0.3454(11)
C5 C 0.4294(10) 0.4222(10) 0.2967(8)
C6 C 0.4816(14) 0.4544(14) 0.2021(11)
B1 B 0.7550(11) 0.75500 0.75500
F1 F 0.7056(12) 0.8365(10) 0.7842(9)
F2 F 0.6953(11) 0.69530 0.69530
Cl1A Cl 0.1446(4) 0.2415(3) 0.3338(3)
Cl1B Cl 0.3338(4) 0.1446(3) 0.2415(3)
C1A C 0.1382(8) 0.0138(9) 0.1409(9)
C1B C 0.1409(8) 0.1382(9) 0.0138(9)
C2A C 0.0520(9) 0.0572(9) 0.1840(9)
C2B C 0.1840(9) 0.0520(9) 0.0572(9)
C4A C 0.3454(8) 0.4660(11) 0.3340(11)
C4B C 0.3340(8) 0.3454(11) 0.4660(11)
C5A C 0.2967(10) 0.4294(10) 0.4222(8)
C5B C 0.4222(10) 0.2967(10) 0.4294(8)
C3A C 0.0076(9) 0.0139(12) 0.2819(10)
C3B C 0.2819(9) 0.0076(12) 0.0139(10)
C6A C 0.2021(14) 0.4816(14) 0.4544(11)
C6B C 0.4544(14) 0.2021(14) 0.4816(11)
F1A F 0.7842(12) 0.7056(10) 0.8365(9)
F1B F 0.8365(12) 0.7842(10) 0.7056(9)
#END

data_CSD_CIF_JURGIO
_audit_creation_date 2015-08-18
_audit_creation_method CSD-ConQuest-V1
_database_code_CSD JURGIO
_database_code_depnum_ccdc_archive 'CCDC 1406455'
_chemical_formula_sum 'C30 H36 Cd1 Cl5 N3'
_chemical_formula_moiety
;
C30 H36 N3 3+,Cd1 Cl4 2-,Cl1 1-
;
_journal_coden_Cambridge 222
_journal_volume 44
_journal_year 2015
_journal_page_first 15960
_journal_name_full 'Dalton Trans. '
loop_
_publ_author_name
"Hong-Cui Yu"
"Lei Li"
"Ji Gao"
"Jian Tong"
"Wenxu Zheng"
"M.Cametti"
"A.Famulari"
"S.V.Meille"
"Fang Guo"
"J.Marti-Rujas"
_chemical_name_systematic
;
N,N',N''-((2,4,6-trimethylbenzene-1,3,5-triyl)tris(methylene))trianilinium 
tetrachloro-cadmium(ii) chloride
;
_cell_volume   3214.925
_exptl_crystal_colour 'colorless'
_exptl_crystal_density_diffrn 1.505
_exptl_crystal_description 'block'
_diffrn_ambient_temperature 293
#These two values have been output from a single CSD field.
_refine_ls_R_factor_gt 0.0194
_refine_ls_wR_factor_gt 0.0194
_symmetry_cell_setting cubic
_symmetry_space_group_name_H-M 'P 21 3'
_symmetry_Int_Tables_number 198
loop_
_symmetry_equiv_pos_site_id
_symmetry_equiv_pos_as_xyz
1 x,y,z
2 1/2-x,-y,1/2+z
3 1/2+x,1/2-y,-z
4 -x,1/2+y,1/2-z
5 z,x,y
6 1/2-z,-x,1/2+y
7 1/2+z,1/2-x,-y
8 -z,1/2+x,1/2-y
9 y,z,x
10 1/2+y,1/2-z,-x
11 -y,1/2+z,1/2-x
12 1/2-y,-z,1/2+x
_cell_length_a 14.759(2)
_cell_length_b 14.759(2)
_cell_length_c 14.759(2)
_cell_angle_alpha 90
_cell_angle_beta 90
_cell_angle_gamma 90
_cell_formula_units_Z 4
loop_
_atom_type_symbol
_atom_type_radius_bond
C 0.68
H 0.23
Cd 1.44
Cl 0.99
N 0.68
loop_
_atom_site_label
_atom_site_type_symbol
_atom_site_fract_x
_atom_site_fract_y
_atom_site_fract_z
N1 N 0.23147(11) -0.71654(10) -0.03219(10)
H1 H 0.17650 -0.74080 -0.01990
H2 H 0.26420 -0.76070 -0.05260
C1 C 0.16743(12) -0.71011(12) 0.17918(12)
C2 C 0.24514(12) -0.74311(11) 0.13558(12)
C3 C 0.11822(14) -0.62708(13) 0.14356(14)
H3 H 0.05400 -0.63610 0.14870
H4 H 0.13390 -0.61770 0.08110
H5 H 0.13570 -0.57500 0.17830
C4 C 0.28124(12) -0.69234(12) 0.05427(13)
H6 H 0.34510 -0.70610 0.04690
H7 H 0.27560 -0.62770 0.06500
C5 C 0.21734(14) -0.64107(14) -0.09607(13)
C6 C 0.27829(18) -0.57122(17) -0.10166(16)
H8 H 0.32960 -0.57080 -0.06510
C7 C 0.2629(2) -0.50163(18) -0.16191(19)
H9 H 0.30360 -0.45370 -0.16580
C8 C 0.1875(2) -0.5031(2) -0.2162(2)
H10 H 0.17640 -0.45540 -0.25590
C9 C 0.1287(2) -0.5743(3) -0.2121(3)
H11 H 0.07840 -0.57560 -0.25000
C10 C 0.1435(2) -0.6450(2) -0.1518(2)
H12 H 0.10400 -0.69400 -0.14940
Cd1 Cd 0.047118(8) -0.952882(8) 0.047118(8)
Cl1 Cl -0.04777(3) -1.04777(3) -0.04777(3)
Cl2 Cl 0.02801(3) -0.79312(3) 0.00733(4)
Cl3 Cl -0.15556(4) -0.65556(4) -0.84444(4)
N1D N -0.03219(11) -0.76853(10) 0.28346(10)
H1D H -0.01990 -0.82350 0.25920
H2D H -0.05260 -0.73580 0.23930
C1D C 0.17918(12) -0.83257(12) 0.28989(12)
C2D C 0.13558(12) -0.75486(11) 0.25689(12)
C3D C 0.14356(14) -0.88178(13) 0.37292(14)
H3D H 0.14870 -0.94600 0.36390
H4D H 0.08110 -0.86610 0.38230
H5D H 0.17830 -0.86430 0.42500
C4D C 0.05427(12) -0.71876(12) 0.30766(13)
H6D H 0.04690 -0.65490 0.29390
H7D H 0.06500 -0.72440 0.37230
C5D C -0.09607(14) -0.78266(14) 0.35893(13)
C6D C -0.10166(18) -0.72171(17) 0.42878(16)
H8D H -0.06510 -0.67040 0.42920
C7D C -0.16191(20) -0.73710(18) 0.49837(19)
H9D H -0.16580 -0.69640 0.54630
C8D C -0.2162(2) -0.8125(2) 0.4969(2)
H10D H -0.25590 -0.82360 0.54460
C9D C -0.2121(2) -0.8713(3) 0.4257(3)
H11D H -0.25000 -0.92160 0.42440
C10D C -0.1518(2) -0.8565(2) 0.3550(2)
H12D H -0.14940 -0.89600 0.30600
N1H N 0.28346(11) -1.03219(10) 0.23147(10)
H1H H 0.25920 -1.01990 0.17650
H2H H 0.23930 -1.05260 0.26420
C1H C 0.28989(12) -0.82082(12) 0.16743(12)
C2H C 0.25689(12) -0.86442(11) 0.24514(12)
C3H C 0.37292(14) -0.85644(13) 0.11822(14)
H3H H 0.36390 -0.85130 0.05400
H4H H 0.38230 -0.91890 0.13390
H5H H 0.42500 -0.82170 0.13570
C4H C 0.30766(12) -0.94573(12) 0.28124(13)
H6H H 0.29390 -0.95310 0.34510
H7H H 0.37230 -0.93500 0.27560
C5H C 0.35893(14) -1.09607(14) 0.21734(13)
C6H C 0.42878(18) -1.10166(17) 0.27829(16)
H8H H 0.42920 -1.06510 0.32960
C7H C 0.49837(20) -1.16191(18) 0.26290(19)
H9H H 0.54630 -1.16580 0.30360
C8H C 0.4969(2) -1.2162(2) 0.1875(2)
H10H H 0.54460 -1.25590 0.17640
C9H C 0.4257(2) -1.2121(3) 0.1287(3)
H11H H 0.42440 -1.25000 0.07840
C10H C 0.3550(2) -1.1518(2) 0.1435(2)
H12H H 0.30600 -1.14940 0.10400
Cl2D Cl 0.00733(3) -0.97199(3) 0.20688(4)
Cl2H Cl 0.20688(3) -0.99267(3) 0.02801(4)
#END

data_CSD_CIF_JURGOU
_audit_creation_date 2015-08-18
_audit_creation_method CSD-ConQuest-V1
_database_code_CSD JURGOU
_database_code_depnum_ccdc_archive 'CCDC 1406456'
_chemical_formula_sum 'C30 H36 Cl5 N3 Zn1'
_chemical_formula_moiety
;
C30 H36 N3 3+,Cl4 Zn1 2-,Cl1 1-
;
_journal_coden_Cambridge 222
_journal_volume 44
_journal_year 2015
_journal_page_first 15960
_journal_name_full 'Dalton Trans. '
loop_
_publ_author_name
"Hong-Cui Yu"
"Lei Li"
"Ji Gao"
"Jian Tong"
"Wenxu Zheng"
"M.Cametti"
"A.Famulari"
"S.V.Meille"
"Fang Guo"
"J.Marti-Rujas"
_chemical_name_systematic
;
N,N',N''-((2,4,6-trimethylbenzene-1,3,5-triyl)tris(methylene))trianilinium 
tetrachloro-zinc(ii) chloride
;
_cell_volume   3156.663
_exptl_crystal_colour 'colorless'
_exptl_crystal_density_diffrn 1.433
_exptl_crystal_description 'block'
_diffrn_ambient_temperature 293
#These two values have been output from a single CSD field.
_refine_ls_R_factor_gt 0.0255
_refine_ls_wR_factor_gt 0.0255
_symmetry_cell_setting cubic
_symmetry_space_group_name_H-M 'P 21 3'
_symmetry_Int_Tables_number 198
loop_
_symmetry_equiv_pos_site_id
_symmetry_equiv_pos_as_xyz
1 x,y,z
2 1/2-x,-y,1/2+z
3 1/2+x,1/2-y,-z
4 -x,1/2+y,1/2-z
5 z,x,y
6 1/2-z,-x,1/2+y
7 1/2+z,1/2-x,-y
8 -z,1/2+x,1/2-y
9 y,z,x
10 1/2+y,1/2-z,-x
11 -y,1/2+z,1/2-x
12 1/2-y,-z,1/2+x
_cell_length_a 14.6693(4)
_cell_length_b 14.6693(4)
_cell_length_c 14.6693(4)
_cell_angle_alpha 90
_cell_angle_beta 90
_cell_angle_gamma 90
_cell_formula_units_Z 4
loop_
_atom_type_symbol
_atom_type_radius_bond
C 0.68
H 0.23
Cl 0.99
N 0.68
Zn 1.22
loop_
_atom_site_label
_atom_site_type_symbol
_atom_site_fract_x
_atom_site_fract_y
_atom_site_fract_z
N1 N -0.28322(12) -0.96692(12) -0.22994(12)
H1 H -0.25410 -0.97900 -0.17200
H2 H -0.23810 -0.93700 -0.25700
C1 C -0.25799(13) -1.13556(13) -0.24523(13)
C2 C -0.17988(13) -1.16711(14) -0.29074(13)
C3 C -0.14320(16) -1.11627(16) -0.37293(15)
H3 H -0.07970 -1.13000 -0.38050
H4 H -0.15070 -1.05190 -0.36390
H5 H -0.17600 -1.13470 -0.42640
C4 C -0.30873(14) -1.05358(14) -0.28065(13)
H6 H -0.37370 -1.06400 -0.27450
H7 H -0.29530 -1.04590 -0.34490
C5 C -0.35908(16) -0.90274(15) -0.21527(16)
C6 C -0.4272(2) -0.89366(18) -0.27802(19)
H8 H -0.42590 -0.92780 -0.33140
C7 C -0.4973(2) -0.8342(2) -0.2622(2)
H9 H -0.54440 -0.82870 -0.30420
C8 C -0.4978(3) -0.7828(3) -0.1841(3)
H10 H -0.54650 -0.74390 -0.17240
C9 C -0.4272(4) -0.7884(3) -0.1232(3)
H11 H -0.42650 -0.75130 -0.07180
C10 C -0.3567(3) -0.8497(3) -0.1385(2)
H12 H -0.30870 -0.85460 -0.09730
Zn1 Zn -0.047384(15) -1.047384(15) -0.047384(15)
Cl1 Cl -0.02803(4) -1.19664(4) -0.01116(4)
Cl2 Cl 0.04113(4) -0.95887(4) 0.04113(4)
Cl3 Cl 0.15430(4) -1.34570(4) -0.15430(4)
N1D N -0.22994(12) -1.28322(12) 0.03308(12)
H1D H -0.17200 -1.25410 0.02100
H2D H -0.25700 -1.23810 0.06300
C1D C -0.24523(13) -1.25799(13) -0.13556(13)
C2D C -0.29074(13) -1.17988(14) -0.16711(13)
C3D C -0.37293(16) -1.14320(16) -0.11627(15)
H3D H -0.38050 -1.07970 -0.13000
H4D H -0.36390 -1.15070 -0.05190
H5D H -0.42640 -1.17600 -0.13470
C4D C -0.28065(14) -1.30873(14) -0.05358(13)
H6D H -0.27450 -1.37370 -0.06400
H7D H -0.34490 -1.29530 -0.04590
C5D C -0.21527(16) -1.35908(15) 0.09726(16)
C6D C -0.27802(20) -1.42720(18) 0.10634(19)
H8D H -0.33140 -1.42590 0.07220
C10D C -0.1385(3) -1.3567(3) 0.1503(2)
H12D H -0.09730 -1.30870 0.14540
C7D C -0.2622(2) -1.4973(2) 0.1658(2)
H9D H -0.30420 -1.54440 0.17130
C8D C -0.1841(3) -1.4978(3) 0.2172(3)
H10D H -0.17240 -1.54650 0.25610
C9D C -0.1232(4) -1.4272(3) 0.2116(3)
H11D H -0.07180 -1.42650 0.24870
N1H N 0.03308(12) -1.22994(12) -0.28322(12)
H1H H 0.02100 -1.17200 -0.25410
H2H H 0.06300 -1.25700 -0.23810
C1H C -0.13556(13) -1.24523(13) -0.25799(13)
C2H C -0.16711(13) -1.29074(14) -0.17988(13)
C3H C -0.11627(16) -1.37293(16) -0.14320(15)
H3H H -0.13000 -1.38050 -0.07970
H4H H -0.05190 -1.36390 -0.15070
H5H H -0.13470 -1.42640 -0.17600
C4H C -0.05358(14) -1.28065(14) -0.30873(13)
H6H H -0.06400 -1.27450 -0.37370
H7H H -0.04590 -1.34490 -0.29530
C5H C 0.09726(16) -1.21527(15) -0.35908(16)
C6H C 0.10634(20) -1.27802(18) -0.42720(19)
H8H H 0.07220 -1.33140 -0.42590
C10H C 0.1503(3) -1.1385(3) -0.3567(2)
H12H H 0.14540 -1.09730 -0.30870
C7H C 0.1658(2) -1.2622(2) -0.4973(2)
H9H H 0.17130 -1.30420 -0.54440
C8H C 0.2172(3) -1.1841(3) -0.4978(3)
H10H H 0.25610 -1.17240 -0.54650
C9H C 0.2116(4) -1.1232(3) -0.4272(3)
H11H H 0.24870 -1.07180 -0.42650
Cl1D Cl -0.01116(4) -1.02803(4) -0.19664(4)
Cl1H Cl -0.19664(4) -1.01116(4) -0.02803(4)
#END

data_CSD_CIF_JURGUA
_audit_creation_date 2015-08-18
_audit_creation_method CSD-ConQuest-V1
_database_code_CSD JURGUA
_database_code_depnum_ccdc_archive 'CCDC 1406457'
_chemical_formula_sum 'C30 H36 Cl5 Mn1 N3'
_chemical_formula_moiety
;
C30 H36 N3 3+,Cl4 Mn1 2-,Cl1 1-
;
_journal_coden_Cambridge 222
_journal_volume 44
_journal_year 2015
_journal_page_first 15960
_journal_name_full 'Dalton Trans. '
loop_
_publ_author_name
"Hong-Cui Yu"
"Lei Li"
"Ji Gao"
"Jian Tong"
"Wenxu Zheng"
"M.Cametti"
"A.Famulari"
"S.V.Meille"
"Fang Guo"
"J.Marti-Rujas"
_chemical_name_systematic
;
N,N',N''-((2,4,6-trimethylbenzene-1,3,5-triyl)tris(methylene))trianilinium 
tetrachloro-manganese(ii) chloride
;
_cell_volume   3185.283
_exptl_crystal_colour 'colorless'
_exptl_crystal_density_diffrn 1.399
_exptl_crystal_description 'block'
_diffrn_ambient_temperature 293
#These two values have been output from a single CSD field.
_refine_ls_R_factor_gt 0.0262
_refine_ls_wR_factor_gt 0.0262
_symmetry_cell_setting cubic
_symmetry_space_group_name_H-M 'P 21 3'
_symmetry_Int_Tables_number 198
loop_
_symmetry_equiv_pos_site_id
_symmetry_equiv_pos_as_xyz
1 x,y,z
2 1/2-x,-y,1/2+z
3 1/2+x,1/2-y,-z
4 -x,1/2+y,1/2-z
5 z,x,y
6 1/2-z,-x,1/2+y
7 1/2+z,1/2-x,-y
8 -z,1/2+x,1/2-y
9 y,z,x
10 1/2+y,1/2-z,-x
11 -y,1/2+z,1/2-x
12 1/2-y,-z,1/2+x
_cell_length_a 14.7135(6)
_cell_length_b 14.7135(6)
_cell_length_c 14.7135(6)
_cell_angle_alpha 90
_cell_angle_beta 90
_cell_angle_gamma 90
_cell_formula_units_Z 4
loop_
_atom_type_symbol
_atom_type_radius_bond
C 0.68
H 0.23
Cl 0.99
Mn 1.61
N 0.68
loop_
_atom_site_label
_atom_site_type_symbol
_atom_site_fract_x
_atom_site_fract_y
_atom_site_fract_z
N1 N -0.21652(10) -0.53256(10) -0.26921(10)
H1 H -0.24420 -0.51620 -0.32310
H2 H -0.25780 -0.56820 -0.24120
C1 C -0.24268(11) -0.36443(11) -0.25494(12)
C2 C -0.32066(12) -0.33276(12) -0.20972(11)
C3 C -0.35699(14) -0.38283(14) -0.12723(13)
H3 H -0.42000 -0.36800 -0.11880
H4 H -0.32320 -0.36500 -0.07440
H5 H -0.35080 -0.44710 -0.13640
C4 C -0.19168(12) -0.44599(12) -0.21913(12)
H6 H -0.20510 -0.45350 -0.15500
H7 H -0.12690 -0.43530 -0.22510
C5 C -0.14086(14) -0.59697(13) -0.28394(13)
C6 C -0.1449(2) -0.6519(2) -0.3587(2)
H8 H -0.19340 -0.64790 -0.39900
C7 C -0.0750(3) -0.7140(3) -0.3735(2)
H9 H -0.07720 -0.75310 -0.42310
C8 C -0.0024(2) -0.7172(2) -0.3141(2)
H10 H 0.04630 -0.75580 -0.32590
C9 C -0.00190(18) -0.66402(18) -0.2384(2)
H11 H 0.04590 -0.66840 -0.19730
C10 C -0.07171(17) -0.60377(16) -0.22217(17)
H12 H -0.07180 -0.56820 -0.16990
Mn1 Mn -0.047363(18) -0.547363(18) 0.047363(18)
Cl1 Cl 0.04436(3) -0.45564(3) -0.04436(3)
Cl2 Cl -0.02837(4) -0.70163(3) 0.00862(4)
Cl3 Cl -0.34479(4) -0.65521(4) -0.15521(4)
N1D N -0.26921(10) -0.21652(10) -0.53256(10)
H1D H -0.32310 -0.24420 -0.51620
H2D H -0.24120 -0.25780 -0.56820
C1D C -0.25494(11) -0.24268(11) -0.36443(12)
C2D C -0.20972(12) -0.32066(12) -0.33276(11)
C3D C -0.12723(14) -0.35699(14) -0.38283(13)
H3D H -0.11880 -0.42000 -0.36800
H4D H -0.07440 -0.32320 -0.36500
H5D H -0.13640 -0.35080 -0.44710
C4D C -0.21913(12) -0.19168(12) -0.44599(12)
H6D H -0.15500 -0.20510 -0.45350
H7D H -0.22510 -0.12690 -0.43530
C5D C -0.28394(14) -0.14086(13) -0.59697(13)
C6D C -0.3587(2) -0.1449(2) -0.6519(2)
H8D H -0.39900 -0.19340 -0.64790
C7D C -0.3735(3) -0.0750(3) -0.7140(2)
H9D H -0.42310 -0.07720 -0.75310
C8D C -0.3141(2) -0.0024(2) -0.7172(2)
H10D H -0.32590 0.04630 -0.75580
C9D C -0.23840(18) -0.00190(18) -0.66402(20)
H11D H -0.19730 0.04590 -0.66840
C10D C -0.22217(17) -0.07171(16) -0.60377(17)
H12D H -0.16990 -0.07180 -0.56820
N1H N -0.53256(10) -0.26921(10) -0.21652(10)
H1H H -0.51620 -0.32310 -0.24420
H2H H -0.56820 -0.24120 -0.25780
C1H C -0.36443(11) -0.25494(11) -0.24268(12)
C2H C -0.33276(12) -0.20972(12) -0.32066(11)
C3H C -0.38283(14) -0.12723(14) -0.35699(13)
H3H H -0.36800 -0.11880 -0.42000
H4H H -0.36500 -0.07440 -0.32320
H5H H -0.44710 -0.13640 -0.35080
C4H C -0.44599(12) -0.21913(12) -0.19168(12)
H6H H -0.45350 -0.15500 -0.20510
H7H H -0.43530 -0.22510 -0.12690
C5H C -0.59697(14) -0.28394(13) -0.14086(13)
C6H C -0.6519(2) -0.3587(2) -0.1449(2)
H8H H -0.64790 -0.39900 -0.19340
C7H C -0.7140(3) -0.3735(3) -0.0750(2)
H9H H -0.75310 -0.42310 -0.07720
C8H C -0.7172(2) -0.3141(2) -0.0024(2)
H10H H -0.75580 -0.32590 0.04630
C9H C -0.66402(18) -0.23840(18) -0.0019(2)
H11H H -0.66840 -0.19730 0.04590
C10H C -0.60377(17) -0.22217(16) -0.07171(17)
H12H H -0.56820 -0.16990 -0.07180
Cl2G Cl -0.00862(4) -0.52837(3) 0.20163(4)
Cl2I Cl -0.20163(4) -0.50862(3) 0.02837(4)
#END

data_CSD_CIF_JURHAH
_audit_creation_date 2015-08-18
_audit_creation_method CSD-ConQuest-V1
_database_code_CSD JURHAH
_database_code_depnum_ccdc_archive 'CCDC 1406458'
_chemical_formula_sum 'C30 H36 Cl5 Co1 N3'
_chemical_formula_moiety
;
C30 H36 N3 3+,Cl4 Co1 2-,Cl1 1-
;
_journal_coden_Cambridge 222
_journal_volume 44
_journal_year 2015
_journal_page_first 15960
_journal_name_full 'Dalton Trans. '
loop_
_publ_author_name
"Hong-Cui Yu"
"Lei Li"
"Ji Gao"
"Jian Tong"
"Wenxu Zheng"
"M.Cametti"
"A.Famulari"
"S.V.Meille"
"Fang Guo"
"J.Marti-Rujas"
_chemical_name_systematic
;
N,N',N''-((2,4,6-trimethylbenzene-1,3,5-triyl)tris(methylene))trianilinium 
tetrachloro-cobalt(ii)  chloride
;
_cell_volume   3146.796
_exptl_crystal_colour 'blue'
_exptl_crystal_density_diffrn 1.392
_exptl_crystal_description 'block'
_diffrn_ambient_temperature 293
#These two values have been output from a single CSD field.
_refine_ls_R_factor_gt 0.0264
_refine_ls_wR_factor_gt 0.0264
_symmetry_cell_setting cubic
_symmetry_space_group_name_H-M 'P 21 3'
_symmetry_Int_Tables_number 198
loop_
_symmetry_equiv_pos_site_id
_symmetry_equiv_pos_as_xyz
1 x,y,z
2 1/2-x,-y,1/2+z
3 1/2+x,1/2-y,-z
4 -x,1/2+y,1/2-z
5 z,x,y
6 1/2-z,-x,1/2+y
7 1/2+z,1/2-x,-y
8 -z,1/2+x,1/2-y
9 y,z,x
10 1/2+y,1/2-z,-x
11 -y,1/2+z,1/2-x
12 1/2-y,-z,1/2+x
_cell_length_a 14.6540(12)
_cell_length_b 14.6540(12)
_cell_length_c 14.6540(12)
_cell_angle_alpha 90
_cell_angle_beta 90
_cell_angle_gamma 90
_cell_formula_units_Z 4
loop_
_atom_type_symbol
_atom_type_radius_bond
C 0.68
H 0.23
Cl 0.99
Co 1.26
N 0.68
loop_
_atom_site_label
_atom_site_type_symbol
_atom_site_fract_x
_atom_site_fract_y
_atom_site_fract_z
N1 N -0.46704(11) -1.23025(11) -0.21655(11)
H1 H -0.43820 -1.26180 -0.26070
H2 H -0.48280 -1.17570 -0.24010
C1 C -0.63571(12) -1.24542(13) -0.24206(13)
C2 C -0.67984(13) -1.16729(14) -0.20914(13)
C3 C -0.64318(16) -1.11650(16) -0.12667(15)
H3 H -0.64780 -1.05200 -0.13690
H4 H -0.58040 -1.13270 -0.11720
H5 H -0.67820 -1.13270 -0.07370
C4 C -0.55359(14) -1.28097(13) -0.19106(14)
H6 H -0.54580 -1.34530 -0.20440
H7 H -0.56410 -1.27480 -0.12600
C5 C -0.40263(15) -1.21532(15) -0.14072(16)
C6 C -0.39407(17) -1.27808(19) -0.07250(19)
H8 H -0.42840 -1.33140 -0.07360
C7 C -0.3342(2) -1.2619(2) -0.0020(2)
H9 H -0.32920 -1.30350 0.04560
C8 C -0.2821(3) -1.1843(2) -0.0020(2)
H10 H -0.24350 -1.17230 0.04690
C9 C -0.2865(3) -1.1243(3) -0.0735(3)
H11 H -0.24780 -1.07390 -0.07520
C10 C -0.3489(2) -1.1389(2) -0.1434(3)
H12 H -0.35410 -1.09760 -0.19130
Co1 Co -0.047799(17) -0.452201(17) -0.547799(17)
Cl1 Cl -0.19708(4) -0.48912(4) -0.52845(4)
Cl2 Cl 0.04104(4) -0.54104(4) -0.45896(4)
Cl3 Cl 0.34578(4) -0.84578(4) -0.15422(4)
N1G N -0.78345(11) -0.96704(11) -0.26975(11)
H1G H -0.73930 -0.93820 -0.23820
H2G H -0.75990 -0.98280 -0.32430
C1G C -0.75794(12) -1.13571(13) -0.25458(13)
C2G C -0.79086(13) -1.17984(14) -0.33271(13)
C3G C -0.87333(16) -1.14318(16) -0.38350(15)
H3G H -0.86310 -1.14780 -0.44800
H4G H -0.88280 -1.08040 -0.36730
H5G H -0.92630 -1.17820 -0.36730
C4G C -0.80894(14) -1.05359(13) -0.21903(14)
H6G H -0.79560 -1.04580 -0.15470
H7G H -0.87400 -1.06410 -0.22520
C5G C -0.85928(15) -0.90263(15) -0.28468(16)
C6G C -0.92750(17) -0.89407(19) -0.22192(19)
H8G H -0.92640 -0.92840 -0.16860
C7G C -0.9980(2) -0.8342(2) -0.2381(2)
H9G H -1.04560 -0.82920 -0.19650
C8G C -0.9980(3) -0.7821(2) -0.3157(2)
H10G H -1.04690 -0.74350 -0.32770
C9G C -0.9265(3) -0.7865(3) -0.3757(3)
H11G H -0.92480 -0.74780 -0.42610
C10G C -0.8566(2) -0.8489(2) -0.3611(3)
H12G H -0.80870 -0.85410 -0.40240
N1I N -0.73025(11) -1.28345(11) -0.53296(11)
H1I H -0.76180 -1.23930 -0.56180
H2I H -0.67570 -1.25990 -0.51720
C1I C -0.74542(12) -1.25794(13) -0.36429(13)
C2I C -0.66729(13) -1.29086(14) -0.32016(13)
C3I C -0.61650(16) -1.37333(16) -0.35682(15)
H3I H -0.55200 -1.36310 -0.35220
H4I H -0.63270 -1.38280 -0.41960
H5I H -0.63270 -1.42630 -0.32180
C4I C -0.78097(14) -1.30894(13) -0.44641(14)
H6I H -0.84530 -1.29560 -0.45420
H7I H -0.77480 -1.37400 -0.43590
C5I C -0.71532(15) -1.35928(15) -0.59737(16)
C6I C -0.77808(17) -1.42750(19) -0.60593(19)
H8I H -0.83140 -1.42640 -0.57160
C7I C -0.7619(2) -1.4980(2) -0.6658(2)
H9I H -0.80350 -1.54560 -0.67080
C8I C -0.6843(3) -1.4980(2) -0.7179(2)
H10I H -0.67230 -1.54690 -0.75650
C9I C -0.6243(3) -1.4265(3) -0.7135(3)
H11I H -0.57390 -1.42480 -0.75220
C10I C -0.6389(2) -1.3566(2) -0.6511(3)
H12I H -0.59760 -1.30870 -0.64590
Cl1F Cl -0.02845(4) -0.30292(4) -0.51088(4)
Cl1K Cl -0.01088(4) -0.47155(4) -0.69708(4)
#END

data_CSD_CIF_JURHEL
_audit_creation_date 2015-08-18
_audit_creation_method CSD-ConQuest-V1
_database_code_CSD JURHEL
_database_code_depnum_ccdc_archive 'CCDC 1406459'
_chemical_formula_sum 'C30 H36 Br5 N3 Zn1'
_chemical_formula_moiety
;
C30 H36 N3 3+,Br4 Zn1 2-,Br1 1-
;
_journal_coden_Cambridge 222
_journal_volume 44
_journal_year 2015
_journal_page_first 15960
_journal_name_full 'Dalton Trans. '
loop_
_publ_author_name
"Hong-Cui Yu"
"Lei Li"
"Ji Gao"
"Jian Tong"
"Wenxu Zheng"
"M.Cametti"
"A.Famulari"
"S.V.Meille"
"Fang Guo"
"J.Marti-Rujas"
_chemical_name_systematic
;
N,N',N''-((2,4,6-trimethylbenzene-1,3,5-triyl)tris(methylene))trianilinium 
tetrabromo-zinc(ii) bromide
;
_cell_volume   3365.087
_exptl_crystal_colour 'colorless'
_exptl_crystal_density_diffrn 1.783
_exptl_crystal_description 'block'
_diffrn_ambient_temperature 293
#These two values have been output from a single CSD field.
_refine_ls_R_factor_gt 0.0309
_refine_ls_wR_factor_gt 0.0309
_symmetry_cell_setting cubic
_symmetry_space_group_name_H-M 'P 21 3'
_symmetry_Int_Tables_number 198
loop_
_symmetry_equiv_pos_site_id
_symmetry_equiv_pos_as_xyz
1 x,y,z
2 1/2-x,-y,1/2+z
3 1/2+x,1/2-y,-z
4 -x,1/2+y,1/2-z
5 z,x,y
6 1/2-z,-x,1/2+y
7 1/2+z,1/2-x,-y
8 -z,1/2+x,1/2-y
9 y,z,x
10 1/2+y,1/2-z,-x
11 -y,1/2+z,1/2-x
12 1/2-y,-z,1/2+x
_cell_length_a 14.9853(18)
_cell_length_b 14.9853(18)
_cell_length_c 14.9853(18)
_cell_angle_alpha 90
_cell_angle_beta 90
_cell_angle_gamma 90
_cell_formula_units_Z 4
loop_
_atom_type_symbol
_atom_type_radius_bond
C 0.68
H 0.23
Br 1.21
N 0.68
Zn 1.22
loop_
_atom_site_label
_atom_site_type_symbol
_atom_site_fract_x
_atom_site_fract_y
_atom_site_fract_z
N1 N 0.2771(2) -0.5342(2) -0.0210(2)
H1 H 0.26620 -0.50530 -0.07990
H2 H 0.31300 -0.48840 0.01830
C1 C 0.0673(2) -0.5399(2) -0.0816(2)
C2 C 0.1119(2) -0.5085(2) -0.0054(2)
C3 C 0.1022(3) -0.6210(3) -0.1306(3)
H3 H 0.08900 -0.61550 -0.19310
H4 H 0.07420 -0.67370 -0.10730
H5 H 0.16560 -0.62510 -0.12250
C4 C 0.1917(2) -0.5600(2) 0.0282(3)
H6 H 0.18100 -0.62340 0.02050
H7 H 0.19930 -0.54870 0.09150
C5 C 0.3411(3) -0.6079(3) -0.0351(3)
C6 C 0.3517(3) -0.6730(3) 0.0257(3)
H8 H 0.31930 -0.67150 0.07860
C7 C 0.4105(3) -0.7419(4) 0.0102(4)
H9 H 0.41520 -0.78870 0.05070
C8 C 0.4611(4) -0.7412(5) -0.0641(4)
H10 H 0.50230 -0.78660 -0.07410
C9 C 0.4519(6) -0.6743(6) -0.1239(5)
H11 H 0.48660 -0.67450 -0.17540
C10 C 0.3918(5) -0.6055(5) -0.1101(4)
H12 H 0.38640 -0.55910 -0.15090
Br1 Br -0.04987(2) -0.77067(3) -0.26463(3)
Br2 Br -0.29721(3) -0.70279(3) -0.20279(3)
Zn1 Zn -0.20541(3) -0.79459(3) -0.29459(3)
Br3 Br -0.40345(3) -0.90345(3) -0.59655(3)
N1G N 0.0210(2) -0.2229(2) 0.0342(2)
H1G H 0.07990 -0.23380 0.00530
H2G H -0.01830 -0.18700 -0.01160
C1G C 0.0816(2) -0.4327(2) 0.0399(2)
C2G C 0.0054(2) -0.3881(2) 0.0085(2)
C3G C 0.1306(3) -0.3978(3) 0.1210(3)
H3G H 0.19310 -0.41100 0.11550
H4G H 0.10730 -0.42580 0.17370
H5G H 0.12250 -0.33440 0.12510
C4G C -0.0282(2) -0.3083(2) 0.0600(3)
H6G H -0.02050 -0.31900 0.12340
H7G H -0.09150 -0.30070 0.04870
C5G C 0.0351(3) -0.1589(3) 0.1079(3)
C6G C -0.0257(3) -0.1483(3) 0.1730(3)
H8G H -0.07860 -0.18070 0.17150
C7G C -0.0102(3) -0.0895(4) 0.2419(4)
H9G H -0.05070 -0.08480 0.28870
C8G C 0.0641(4) -0.0389(5) 0.2412(4)
H10G H 0.07410 0.00230 0.28660
C9G C 0.1239(6) -0.0481(6) 0.1743(5)
H11G H 0.17540 -0.01340 0.17450
C10G C 0.1101(5) -0.1082(5) 0.1055(4)
H12G H 0.15090 -0.11360 0.05910
N1I N -0.0342(2) -0.4790(2) -0.2771(2)
H1I H -0.00530 -0.42010 -0.26620
H2I H 0.01160 -0.51830 -0.31300
C1I C -0.0399(2) -0.4184(2) -0.0673(2)
C2I C -0.0085(2) -0.4946(2) -0.1119(2)
C3I C -0.1210(3) -0.3694(3) -0.1022(3)
H3I H -0.11550 -0.30690 -0.08900
H4I H -0.17370 -0.39270 -0.07420
H5I H -0.12510 -0.37750 -0.16560
C4I C -0.0600(2) -0.5282(2) -0.1917(3)
H6I H -0.12340 -0.52050 -0.18100
H7I H -0.04870 -0.59150 -0.19930
C5I C -0.1079(3) -0.4649(3) -0.3411(3)
C6I C -0.1730(3) -0.5257(3) -0.3517(3)
H8I H -0.17150 -0.57860 -0.31930
C7I C -0.2419(3) -0.5102(4) -0.4105(4)
H9I H -0.28870 -0.55070 -0.41520
C8I C -0.2412(4) -0.4359(5) -0.4611(4)
H10I H -0.28660 -0.42590 -0.50230
C9I C -0.1743(6) -0.3761(6) -0.4519(5)
H11I H -0.17450 -0.32460 -0.48660
C10I C -0.1055(5) -0.3899(5) -0.3918(4)
H12I H -0.05910 -0.34910 -0.38640
Br1E Br -0.23537(2) -0.95013(3) -0.27067(3)
Br1J Br -0.22933(2) -0.76463(3) -0.45013(3)
#END

data_CSD_CIF_JURHIP
_audit_creation_date 2015-08-18
_audit_creation_method CSD-ConQuest-V1
_database_code_CSD JURHIP
_database_code_depnum_ccdc_archive 'CCDC 1406460'
_chemical_formula_sum 'C33 H42 Cd1 Cl5 N3'
_chemical_formula_moiety
;
C33 H42 N3 3+,Cd1 Cl4 2-,Cl1 1-
;
_journal_coden_Cambridge 222
_journal_volume 44
_journal_year 2015
_journal_page_first 15960
_journal_name_full 'Dalton Trans. '
loop_
_publ_author_name
"Hong-Cui Yu"
"Lei Li"
"Ji Gao"
"Jian Tong"
"Wenxu Zheng"
"M.Cametti"
"A.Famulari"
"S.V.Meille"
"Fang Guo"
"J.Marti-Rujas"
_chemical_name_systematic
;
N,N',N''-((2,4,6-trimethylbenzene-1,3,5-triyl)tris(methylene))tris(4-methylani
linium) tetrachloro-cadmium(ii) chloride
;
_cell_volume   3510.907
_exptl_crystal_colour 'colorless'
_exptl_crystal_density_diffrn 1.457
_exptl_crystal_description 'block'
_diffrn_ambient_temperature 293
#These two values have been output from a single CSD field.
_refine_ls_R_factor_gt 0.0234
_refine_ls_wR_factor_gt 0.0234
_symmetry_cell_setting cubic
_symmetry_space_group_name_H-M 'P 21 3'
_symmetry_Int_Tables_number 198
loop_
_symmetry_equiv_pos_site_id
_symmetry_equiv_pos_as_xyz
1 x,y,z
2 1/2-x,-y,1/2+z
3 1/2+x,1/2-y,-z
4 -x,1/2+y,1/2-z
5 z,x,y
6 1/2-z,-x,1/2+y
7 1/2+z,1/2-x,-y
8 -z,1/2+x,1/2-y
9 y,z,x
10 1/2+y,1/2-z,-x
11 -y,1/2+z,1/2-x
12 1/2-y,-z,1/2+x
_cell_length_a 15.1987(19)
_cell_length_b 15.1987(19)
_cell_length_c 15.1987(19)
_cell_angle_alpha 90
_cell_angle_beta 90
_cell_angle_gamma 90
_cell_formula_units_Z 4
loop_
_atom_type_symbol
_atom_type_radius_bond
C 0.68
H 0.23
Cd 1.44
Cl 0.99
N 0.68
loop_
_atom_site_label
_atom_site_type_symbol
_atom_site_fract_x
_atom_site_fract_y
_atom_site_fract_z
N1 N -0.48136(11) -0.96446(11) -0.28800(12)
H1 H -0.50720 -0.90800 -0.27540
H2 H -0.52590 -0.99590 -0.32320
C1 C -0.40650(15) -0.95222(15) -0.34830(15)
C2 C -0.61270(16) -1.10509(15) -0.14476(17)
H3 H -0.67220 -1.11800 -0.12800
H4 H -0.57570 -1.15420 -0.13030
H5 H -0.61020 -1.09440 -0.20700
C3 C -0.45625(14) -1.01255(14) -0.20391(14)
H6 H -0.46780 -1.07490 -0.21120
H7 H -0.39370 -1.00530 -0.19360
C4 C -0.58129(13) -1.02435(13) -0.09598(13)
C5 C -0.50625(13) -0.97924(13) -0.12522(13)
C6 C -0.3795(2) -0.86842(18) -0.3693(2)
H8 H -0.40800 -0.81950 -0.34600
C7 C -0.26542(18) -0.92999(19) -0.46060(19)
C8 C -0.2922(2) -1.01217(18) -0.43503(19)
H9 H -0.26190 -1.06110 -0.45570
C9 C -0.3086(2) -0.8586(2) -0.4262(2)
H10 H -0.29000 -0.80230 -0.44130
C10 C -0.36321(17) -1.02465(18) -0.37930(18)
H11 H -0.38100 -1.08100 -0.36330
C11 C -0.1895(2) -0.9193(3) -0.5239(3)
H12 H -0.20930 -0.88890 -0.57560
H13 H -0.16740 -0.97620 -0.54010
H14 H -0.14350 -0.88600 -0.49620
Cd1 Cd -0.283743(10) -1.283743(10) -0.283743(10)
Cl1 Cl -0.19350(6) -1.19350(6) -0.19350(6)
Cl2 Cl -0.44235(4) -1.26310(4) -0.25451(4)
Cl3 Cl -0.40587(4) -0.59413(4) -0.09413(4)
N1F N -0.78800(11) -1.01864(11) -0.03554(12)
H1F H -0.77540 -0.99280 -0.09200
H2F H -0.82320 -0.97410 -0.00410
C1F C -0.84830(15) -1.09350(15) -0.04778(15)
C2F C -0.64476(16) -0.88730(15) 0.10509(17)
H3F H -0.62800 -0.82780 0.11800
H4F H -0.63030 -0.92430 0.15420
H5F H -0.70700 -0.88980 0.09440
C3F C -0.70391(14) -1.04375(14) 0.01255(14)
H6F H -0.71120 -1.03220 0.07490
H7F H -0.69360 -1.10630 0.00530
C4F C -0.59598(13) -0.91871(13) 0.02435(13)
C5F C -0.62522(13) -0.99375(13) -0.02076(13)
C6F C -0.8693(2) -1.12050(18) -0.13158(20)
H8F H -0.84600 -1.09200 -0.18050
C7F C -0.96060(18) -1.23458(19) -0.07001(19)
C8F C -0.93503(20) -1.20780(18) 0.01217(19)
H9F H -0.95570 -1.23810 0.06110
C9F C -0.9262(2) -1.1914(2) -0.1414(2)
H10F H -0.94130 -1.21000 -0.19770
C10F C -0.87930(17) -1.13679(18) 0.02465(18)
H11F H -0.86330 -1.11900 0.08100
C11F C -1.0239(2) -1.3105(3) -0.0807(3)
H12F H -1.07560 -1.29070 -0.11110
H13F H -1.04010 -1.33260 -0.02380
H14F H -0.99620 -1.35650 -0.11400
N1K N -0.53554(11) -0.71200(11) 0.01864(12)
H1K H -0.59200 -0.72460 -0.00720
H2K H -0.50410 -0.67680 -0.02590
C1K C -0.54778(15) -0.65170(15) 0.09350(15)
C2K C -0.39491(16) -0.85524(15) -0.11270(17)
H3K H -0.38200 -0.87200 -0.17220
H4K H -0.34580 -0.86970 -0.07570
H5K H -0.40560 -0.79300 -0.11020
C3K C -0.48745(14) -0.79609(14) 0.04375(14)
H6K H -0.42510 -0.78880 0.03220
H7K H -0.49470 -0.80640 0.10630
C4K C -0.47565(13) -0.90402(13) -0.08129(13)
C5K C -0.52076(13) -0.87478(13) -0.00625(13)
C6K C -0.63158(20) -0.63070(18) 0.1205(2)
H8K H -0.68050 -0.65400 0.09200
C7K C -0.57001(18) -0.53940(19) 0.23458(19)
C8K C -0.48783(20) -0.56497(18) 0.20780(19)
H9K H -0.43890 -0.54430 0.23810
C9K C -0.6414(2) -0.5738(2) 0.1914(2)
H10K H -0.69770 -0.55870 0.21000
C10K C -0.47535(17) -0.62070(18) 0.13679(18)
H11K H -0.41900 -0.63670 0.11900
C11K C -0.5807(2) -0.4761(3) 0.3105(3)
H12K H -0.61110 -0.42440 0.29070
H13K H -0.52380 -0.45990 0.33260
H14K H -0.61400 -0.50380 0.35650
Cl2D Cl -0.25451(4) -1.44235(4) -0.26310(4)
Cl2H Cl -0.26310(4) -1.25451(4) -0.44235(4)
#END

data_CSD_CIF_JURHOV
_audit_creation_date 2015-08-18
_audit_creation_method CSD-ConQuest-V1
_database_code_CSD JURHOV
_database_code_depnum_ccdc_archive 'CCDC 1406461'
_chemical_formula_sum 'C33 H42 Cl5 Co1 N3'
_chemical_formula_moiety
;
C33 H42 N3 3+,Cl4 Co1 2-,Cl1 1-
;
_journal_coden_Cambridge 222
_journal_volume 44
_journal_year 2015
_journal_page_first 15960
_journal_name_full 'Dalton Trans. '
loop_
_publ_author_name
"Hong-Cui Yu"
"Lei Li"
"Ji Gao"
"Jian Tong"
"Wenxu Zheng"
"M.Cametti"
"A.Famulari"
"S.V.Meille"
"Fang Guo"
"J.Marti-Rujas"
_chemical_name_systematic
;
N,N',N''-((2,4,6-trimethylbenzene-1,3,5-triyl)tris(methylene))tris(4-methylani
linium) tetrachloro-cobalt(ii) chloride
;
_cell_volume   3475.682
_exptl_crystal_colour 'colorless'
_exptl_crystal_density_diffrn 1.358
_exptl_crystal_description 'block'
_diffrn_ambient_temperature 293
#These two values have been output from a single CSD field.
_refine_ls_R_factor_gt 0.031
_refine_ls_wR_factor_gt 0.031
_symmetry_cell_setting cubic
_symmetry_space_group_name_H-M 'P 21 3'
_symmetry_Int_Tables_number 198
loop_
_symmetry_equiv_pos_site_id
_symmetry_equiv_pos_as_xyz
1 x,y,z
2 1/2-x,-y,1/2+z
3 1/2+x,1/2-y,-z
4 -x,1/2+y,1/2-z
5 z,x,y
6 1/2-z,-x,1/2+y
7 1/2+z,1/2-x,-y
8 -z,1/2+x,1/2-y
9 y,z,x
10 1/2+y,1/2-z,-x
11 -y,1/2+z,1/2-x
12 1/2-y,-z,1/2+x
_cell_length_a 15.1477(8)
_cell_length_b 15.1477(8)
_cell_length_c 15.1477(8)
_cell_angle_alpha 90
_cell_angle_beta 90
_cell_angle_gamma 90
_cell_formula_units_Z 4
loop_
_atom_type_symbol
_atom_type_radius_bond
C 0.68
H 0.23
Cl 0.99
Co 1.26
N 0.68
loop_
_atom_site_label
_atom_site_type_symbol
_atom_site_fract_x
_atom_site_fract_y
_atom_site_fract_z
N1 N -0.03654(12) -0.71780(12) -0.23285(11)
C1 C 0.04717(15) -0.76644(15) -0.20548(14)
H1 H 0.05610 -0.75920 -0.14250
H2 H 0.04010 -0.82900 -0.21740
C2 C 0.12721(13) -0.73273(13) -0.25401(13)
C3 C -0.1851(2) -0.76190(18) -0.0425(2)
H3 H -0.20570 -0.81020 -0.01060
C4 C 0.17032(13) -0.65722(13) -0.22259(13)
C5 C 0.13771(16) -0.60805(17) -0.14231(15)
H4 H 0.14080 -0.54570 -0.15310
H5 H 0.17390 -0.62270 -0.09240
H6 H 0.07770 -0.62450 -0.13040
C6 C -0.09772(14) -0.70343(15) -0.15856(15)
C7 C -0.1185(2) -0.61963(18) -0.13301(19)
H7 H -0.09500 -0.57120 -0.16250
C8 C -0.21132(19) -0.6785(2) -0.01797(19)
C9 C -0.12914(18) -0.77603(17) -0.11316(18)
H8 H -0.11310 -0.83290 -0.12970
C10 C -0.1761(2) -0.6077(2) -0.0615(2)
H9 H -0.19050 -0.55080 -0.04340
C11 C -0.2746(3) -0.6647(3) 0.0585(2)
H10 H -0.28930 -0.72080 0.08410
H11 H -0.32730 -0.63660 0.03740
H12 H -0.24710 -0.62810 0.10230
Co1 Co -0.039777(18) -1.039777(18) -0.039777(18)
Cl1 Cl 0.04457(6) -0.95543(6) 0.04457(6)
Cl2 Cl -0.00888(5) -1.01801(4) -0.18626(4)
Cl3 Cl -0.15275(4) -0.84725(4) -0.34725(4)
N1F N 0.26715(12) -0.46346(12) -0.28220(11)
C1F C 0.29452(15) -0.54717(15) -0.23356(14)
H1F H 0.35750 -0.55610 -0.24080
H2F H 0.28260 -0.54010 -0.17100
C2F C 0.24599(13) -0.62721(13) -0.26727(13)
C3F C 0.4575(2) -0.31490(18) -0.2381(2)
H3F H 0.48940 -0.29430 -0.18980
C4F C 0.27741(13) -0.67032(13) -0.34278(13)
C5F C 0.35769(16) -0.63771(17) -0.39195(15)
H4F H 0.34690 -0.64080 -0.45430
H5F H 0.40760 -0.67390 -0.37730
H6F H 0.36960 -0.57770 -0.37550
C6F C 0.34144(14) -0.40228(15) -0.29657(15)
C7F C 0.36699(20) -0.38150(18) -0.38037(19)
H7F H 0.33750 -0.40500 -0.42880
C8F C 0.48203(19) -0.28868(20) -0.32150(19)
C9F C 0.38684(18) -0.37086(17) -0.22397(18)
H8F H 0.37030 -0.38690 -0.16710
C10F C 0.4385(2) -0.3239(2) -0.3923(2)
H9F H 0.45660 -0.30950 -0.44920
C11F C 0.5585(3) -0.2254(3) -0.3353(2)
H10F H 0.58410 -0.21070 -0.27920
H11F H 0.53740 -0.17270 -0.36340
H12F H 0.60230 -0.25290 -0.37190
N1K N 0.21780(12) -0.76715(12) -0.53654(11)
C1K C 0.26644(15) -0.79452(15) -0.45283(14)
H1K H 0.25920 -0.85750 -0.44390
H2K H 0.32900 -0.78260 -0.45990
C2K C 0.23273(13) -0.74599(13) -0.37279(13)
C3K C 0.2619(2) -0.95750(18) -0.6851(2)
H3K H 0.31020 -0.98940 -0.70570
C4K C 0.15722(13) -0.77741(13) -0.32968(13)
C5K C 0.10805(16) -0.85769(17) -0.36229(15)
H4K H 0.04570 -0.84690 -0.35920
H5K H 0.12270 -0.90760 -0.32610
H6K H 0.12450 -0.86960 -0.42230
C6K C 0.20343(14) -0.84144(15) -0.59772(15)
C7K C 0.11963(20) -0.86699(18) -0.61850(19)
H7K H 0.07120 -0.83750 -0.59500
C8K C 0.17850(19) -0.98203(20) -0.71132(19)
C9K C 0.27603(18) -0.88684(17) -0.62914(18)
H8K H 0.33290 -0.87030 -0.61310
C10K C 0.1077(2) -0.9385(2) -0.6761(2)
H9K H 0.05080 -0.95660 -0.69050
C11K C 0.1647(3) -1.0585(3) -0.7746(2)
H10K H 0.22080 -1.08410 -0.78930
H11K H 0.13660 -1.03740 -0.82730
H12K H 0.12810 -1.10230 -0.74710
Cl2D Cl -0.18626(5) -1.00888(4) -0.01801(4)
Cl2H Cl -0.01801(5) -1.18626(4) -0.00888(4)
#END

data_CSD_CIF_JURHUB
_audit_creation_date 2015-08-18
_audit_creation_method CSD-ConQuest-V1
_database_code_CSD JURHUB
_database_code_depnum_ccdc_archive 'CCDC 1406462'
_chemical_formula_sum 'C33 H42 Cl5 Hg1 N3'
_chemical_formula_moiety
;
C33 H42 N3 3+,Cl4 Hg1 2-,Cl1 1-
;
_journal_coden_Cambridge 222
_journal_volume 44
_journal_year 2015
_journal_page_first 15960
_journal_name_full 'Dalton Trans. '
loop_
_publ_author_name
"Hong-Cui Yu"
"Lei Li"
"Ji Gao"
"Jian Tong"
"Wenxu Zheng"
"M.Cametti"
"A.Famulari"
"S.V.Meille"
"Fang Guo"
"J.Marti-Rujas"
_chemical_name_systematic
;
N,N',N''-((2,4,6-trimethylbenzene-1,3,5-triyl)tris(methylene))tris(4-methylani
linium) tetrachloro-mercury(ii) chloride
;
_cell_volume   3517.356
_exptl_crystal_colour 'colorless'
_exptl_crystal_density_diffrn 1.616
_exptl_crystal_description 'block'
_diffrn_ambient_temperature 293
#These two values have been output from a single CSD field.
_refine_ls_R_factor_gt 0.0323
_refine_ls_wR_factor_gt 0.0323
_symmetry_cell_setting cubic
_symmetry_space_group_name_H-M 'P 21 3'
_symmetry_Int_Tables_number 198
loop_
_symmetry_equiv_pos_site_id
_symmetry_equiv_pos_as_xyz
1 x,y,z
2 1/2-x,-y,1/2+z
3 1/2+x,1/2-y,-z
4 -x,1/2+y,1/2-z
5 z,x,y
6 1/2-z,-x,1/2+y
7 1/2+z,1/2-x,-y
8 -z,1/2+x,1/2-y
9 y,z,x
10 1/2+y,1/2-z,-x
11 -y,1/2+z,1/2-x
12 1/2-y,-z,1/2+x
_cell_length_a 15.208(3)
_cell_length_b 15.208(3)
_cell_length_c 15.208(3)
_cell_angle_alpha 90
_cell_angle_beta 90
_cell_angle_gamma 90
_cell_formula_units_Z 4
loop_
_atom_type_symbol
_atom_type_radius_bond
C 0.68
H 0.23
Cl 0.99
Hg 1.32
N 0.68
loop_
_atom_site_label
_atom_site_type_symbol
_atom_site_fract_x
_atom_site_fract_y
_atom_site_fract_z
N1 N -0.2131(2) -0.5180(2) -0.4644(2)
H1 H -0.16850 -0.48020 -0.49390
C1 C -0.3864(3) -0.6059(3) -0.3559(3)
H2 H -0.38340 -0.59400 -0.29400
H3 H -0.32900 -0.62140 -0.37710
H4 H -0.42620 -0.65380 -0.36620
C2 C -0.1303(4) -0.6195(4) -0.3692(4)
H5 H -0.15280 -0.59040 -0.32040
C3 C -0.1519(3) -0.5929(3) -0.4517(3)
C4 C -0.3749(2) -0.4944(3) -0.4799(3)
C5 C -0.2960(3) -0.5440(3) -0.5129(3)
H6 H -0.28850 -0.53250 -0.57510
H7 H -0.30590 -0.60660 -0.50550
C6 C -0.4189(3) -0.5246(3) -0.4041(3)
C7 C -0.1212(4) -0.6366(4) -0.5261(4)
H8 H -0.13770 -0.61920 -0.58230
C8 C -0.0653(4) -0.7065(4) -0.5129(4)
H9 H -0.04380 -0.73620 -0.56170
C9 C -0.0396(4) -0.7347(4) -0.4299(4)
C10 C -0.0735(5) -0.6912(4) -0.3587(4)
H10 H -0.05860 -0.70970 -0.30230
C11 C 0.0235(6) -0.8111(5) -0.4181(6)
H11 H 0.02170 -0.84800 -0.46930
H12 H 0.00670 -0.84460 -0.36740
H13 H 0.08210 -0.78890 -0.41030
Hg1 Hg -0.219419(11) -0.719419(11) -0.780581(11)
Cl1 Cl -0.24448(9) -0.55699(8) -0.76300(8)
Cl2 Cl -0.30920(15) -0.80920(15) -0.69080(15)
Cl3 Cl -0.40551(8) -0.59449(8) -0.09449(8)
N1D N -0.4644(2) -0.2131(2) -0.5180(2)
H1D H -0.49390 -0.16850 -0.48020
C1D C -0.3559(3) -0.3864(3) -0.6059(3)
H2D H -0.29400 -0.38340 -0.59400
H3D H -0.37710 -0.32900 -0.62140
H4D H -0.36620 -0.42620 -0.65380
C2D C -0.3692(4) -0.1303(4) -0.6195(4)
H5D H -0.32040 -0.15280 -0.59040
C3D C -0.4517(3) -0.1519(3) -0.5929(3)
C4D C -0.4799(2) -0.3749(3) -0.4944(3)
C5D C -0.5129(3) -0.2960(3) -0.5440(3)
H6D H -0.57510 -0.28850 -0.53250
H7D H -0.50550 -0.30590 -0.60660
C6D C -0.4041(3) -0.4189(3) -0.5246(3)
C7D C -0.5261(4) -0.1212(4) -0.6366(4)
H8D H -0.58230 -0.13770 -0.61920
C8D C -0.5129(4) -0.0653(4) -0.7065(4)
H9D H -0.56170 -0.04380 -0.73620
C9D C -0.4299(4) -0.0396(4) -0.7347(4)
C10D C -0.3587(5) -0.0735(4) -0.6912(4)
H10D H -0.30230 -0.05860 -0.70970
C11D C -0.4181(6) 0.0235(5) -0.8111(6)
H11D H -0.46930 0.02170 -0.84800
H12D H -0.36740 0.00670 -0.84460
H13D H -0.41030 0.08210 -0.78890
N1H N -0.5180(2) -0.4644(2) -0.2131(2)
H1H H -0.48020 -0.49390 -0.16850
C1H C -0.6059(3) -0.3559(3) -0.3864(3)
H2H H -0.59400 -0.29400 -0.38340
H3H H -0.62140 -0.37710 -0.32900
H4H H -0.65380 -0.36620 -0.42620
C2H C -0.6195(4) -0.3692(4) -0.1303(4)
H5H H -0.59040 -0.32040 -0.15280
C3H C -0.5929(3) -0.4517(3) -0.1519(3)
C4H C -0.4944(2) -0.4799(3) -0.3749(3)
C5H C -0.5440(3) -0.5129(3) -0.2960(3)
H6H H -0.53250 -0.57510 -0.28850
H7H H -0.60660 -0.50550 -0.30590
C6H C -0.5246(3) -0.4041(3) -0.4189(3)
C7H C -0.6366(4) -0.5261(4) -0.1212(4)
H8H H -0.61920 -0.58230 -0.13770
C8H C -0.7065(4) -0.5129(4) -0.0653(4)
H9H H -0.73620 -0.56170 -0.04380
C9H C -0.7347(4) -0.4299(4) -0.0396(4)
C10H C -0.6912(5) -0.3587(4) -0.0735(4)
H10H H -0.70970 -0.30230 -0.05860
C11H C -0.8111(6) -0.4181(5) 0.0235(6)
H11H H -0.84800 -0.46930 0.02170
H12H H -0.84460 -0.36740 0.00670
H13H H -0.78890 -0.41030 0.08210
Cl1G Cl -0.23700(9) -0.74448(8) -0.94301(8)
Cl1I Cl -0.05699(9) -0.73700(8) -0.75552(8)
#END

data_CSD_CIF_JURJAJ
_audit_creation_date 2015-08-18
_audit_creation_method CSD-ConQuest-V1
_database_code_CSD JURJAJ
_database_code_depnum_ccdc_archive 'CCDC 1406463'
_chemical_formula_sum 'C33 H42 Cl5 N3 Zn1'
_chemical_formula_moiety
;
C33 H42 N3 3+,Cl4 Zn1 2-,Cl1 1-
;
_journal_coden_Cambridge 222
_journal_volume 44
_journal_year 2015
_journal_page_first 15960
_journal_name_full 'Dalton Trans. '
loop_
_publ_author_name
"Hong-Cui Yu"
"Lei Li"
"Ji Gao"
"Jian Tong"
"Wenxu Zheng"
"M.Cametti"
"A.Famulari"
"S.V.Meille"
"Fang Guo"
"J.Marti-Rujas"
_chemical_name_systematic
;
N,N',N''-((2,4,6-trimethylbenzene-1,3,5-triyl)tris(methylene))tris(4-methylani
linium) tetrachloro-zinc(ii) chloride
;
_cell_volume   3480.710
_exptl_crystal_colour 'colorless'
_exptl_crystal_density_diffrn 1.38
_exptl_crystal_description 'block'
_diffrn_ambient_temperature 293
#These two values have been output from a single CSD field.
_refine_ls_R_factor_gt 0.026
_refine_ls_wR_factor_gt 0.026
_symmetry_cell_setting cubic
_symmetry_space_group_name_H-M 'P 21 3'
_symmetry_Int_Tables_number 198
loop_
_symmetry_equiv_pos_site_id
_symmetry_equiv_pos_as_xyz
1 x,y,z
2 1/2-x,-y,1/2+z
3 1/2+x,1/2-y,-z
4 -x,1/2+y,1/2-z
5 z,x,y
6 1/2-z,-x,1/2+y
7 1/2+z,1/2-x,-y
8 -z,1/2+x,1/2-y
9 y,z,x
10 1/2+y,1/2-z,-x
11 -y,1/2+z,1/2-x
12 1/2-y,-z,1/2+x
_cell_length_a 15.155(4)
_cell_length_b 15.155(4)
_cell_length_c 15.155(4)
_cell_angle_alpha 90
_cell_angle_beta 90
_cell_angle_gamma 90
_cell_formula_units_Z 4
loop_
_atom_type_symbol
_atom_type_radius_bond
C 0.68
H 0.23
Cl 0.99
N 0.68
Zn 1.22
loop_
_atom_site_label
_atom_site_type_symbol
_atom_site_fract_x
_atom_site_fract_y
_atom_site_fract_z
N1 N 0.21843(10) -0.73241(9) -0.03599(10)
H1 H 0.24630 -0.77170 -0.06640
H2 H 0.16440 -0.75720 -0.02170
C1 C 0.26734(12) -0.70560(12) 0.04723(12)
H3 H 0.32970 -0.71810 0.04000
H4 H 0.26080 -0.64260 0.05620
C2 C 0.26258(14) -0.54247(16) -0.18439(16)
H5 H 0.31080 -0.51060 -0.20490
C3 C 0.23312(11) -0.75398(10) 0.12724(10)
C4 C 0.15756(11) -0.72231(10) 0.17050(11)
C5 C 0.10849(14) -0.64195(12) 0.13756(13)
H6 H 0.04610 -0.65190 0.14220
H7 H 0.12370 -0.63130 0.07700
H8 H 0.12450 -0.59160 0.17250
C6 C 0.17831(16) -0.51821(15) -0.21097(15)
C7 C 0.20403(12) -0.65853(12) -0.09744(12)
C8 C 0.11976(15) -0.63348(16) -0.11837(17)
H9 H 0.07140 -0.66300 -0.09470
C9 C 0.27639(14) -0.61273(15) -0.12829(15)
H10 H 0.33320 -0.62890 -0.11160
C10 C 0.1652(2) -0.4426(2) -0.2749(2)
H11 H 0.21850 -0.40850 -0.27850
H12 H 0.11790 -0.40570 -0.25460
H13 H 0.15100 -0.46560 -0.33220
C11 C 0.10821(16) -0.56235(18) -0.1763(2)
H14 H 0.05130 -0.54490 -0.19130
Zn1 Zn 0.039251(13) -0.960749(13) 0.039251(13)
Cl1 Cl 0.01826(3) -0.81389(3) 0.00945(4)
Cl2 Cl -0.04466(4) -1.04466(4) -0.04466(4)
Cl3 Cl 0.34755(3) -0.84755(3) -0.15245(3)
N1D N -0.03599(10) -0.78157(9) 0.26759(10)
H1D H -0.06640 -0.75370 0.22830
H2D H -0.02170 -0.83560 0.24280
C1D C 0.04723(12) -0.73266(12) 0.29440(12)
H3D H 0.04000 -0.67030 0.28190
H4D H 0.05620 -0.73920 0.35740
C2D C -0.18439(14) -0.73742(16) 0.45753(16)
H5D H -0.20490 -0.68920 0.48940
C3D C 0.12724(11) -0.76688(10) 0.24602(10)
C4D C 0.17050(11) -0.84244(10) 0.27769(11)
C5D C 0.13756(14) -0.89151(12) 0.35805(13)
H6D H 0.14220 -0.95390 0.34810
H7D H 0.07700 -0.87630 0.36870
H8D H 0.17250 -0.87550 0.40840
C6D C -0.21097(16) -0.82169(15) 0.48179(15)
C7D C -0.09744(12) -0.79597(12) 0.34147(12)
C8D C -0.11837(15) -0.88024(16) 0.36652(17)
H9D H -0.09470 -0.92860 0.33700
C9D C -0.12829(14) -0.72361(15) 0.38727(15)
H10D H -0.11160 -0.66680 0.37110
C10D C -0.2749(2) -0.8348(2) 0.5574(2)
H11D H -0.27850 -0.78150 0.59150
H12D H -0.25460 -0.88210 0.59430
H13D H -0.33220 -0.84900 0.53440
C11D C -0.17630(16) -0.89179(18) 0.43765(20)
H14D H -0.19130 -0.94870 0.45510
N1H N 0.26759(10) -1.03599(9) 0.21843(10)
H1H H 0.22830 -1.06640 0.24630
H2H H 0.24280 -1.02170 0.16440
C1H C 0.29440(12) -0.95277(12) 0.26734(12)
H3H H 0.28190 -0.96000 0.32970
H4H H 0.35740 -0.94380 0.26080
C2H C 0.45753(14) -1.18439(16) 0.26258(16)
H5H H 0.48940 -1.20490 0.31080
C3H C 0.24602(11) -0.87276(10) 0.23312(10)
C4H C 0.27769(11) -0.8295(1) 0.15756(11)
C5H C 0.35805(14) -0.86244(12) 0.10849(13)
H6H H 0.34810 -0.85780 0.04610
H7H H 0.36870 -0.92300 0.12370
H8H H 0.40840 -0.82750 0.12450
C6H C 0.48179(16) -1.21097(15) 0.17831(15)
C7H C 0.34147(12) -1.09744(12) 0.20403(12)
C8H C 0.36652(15) -1.11837(16) 0.11976(17)
H9H H 0.33700 -1.09470 0.07140
C9H C 0.38727(14) -1.12829(15) 0.27639(15)
H10H H 0.37110 -1.11160 0.33320
C10H C 0.5574(2) -1.2749(2) 0.1652(2)
H11H H 0.59150 -1.27850 0.21850
H12H H 0.59430 -1.25460 0.11790
H13H H 0.53440 -1.33220 0.15100
C11H C 0.43765(16) -1.17630(18) 0.10821(20)
H14H H 0.45510 -1.19130 0.05130
Cl1D Cl 0.00945(3) -0.98174(3) 0.18611(4)
Cl1H Cl 0.18611(3) -0.99055(3) 0.01826(4)
#END

data_CSD_CIF_KIZKEJ
_audit_creation_date 1992-03-26
_audit_creation_method CSD-ConQuest-V1
_database_code_CSD KIZKEJ
_database_code_depnum_ccdc_archive 'CCDC 1198109'
_database_code_depnum_ccdc_fiz 'CSD 54626'
_chemical_formula_sum 'C18 H54 Cl3 P2 Si6 Ti1'
_chemical_formula_moiety
;
C18 H54 Cl3 P2 Si6 Ti1
;
_journal_coden_Cambridge 29
_journal_volume 595
_journal_year 1991
_journal_page_first 57
_journal_name_full 'Z.Anorg.Allg.Chem. '
loop_
_publ_author_name
"D.Fenske"
"A.Grissinger"
"E.M.Hey-Hawkins"
"J.Magull"
_chemical_name_systematic
;
Trichloro-bis(tris(trimethylsilyl)phosphine)-titanium(iii)
;
_cell_volume   3745.539
_exptl_crystal_density_diffrn 1.17
_exptl_special_details
;
CSD 54626 contains no coordinates for this compound

;
_diffrn_ambient_temperature 200
#These two values have been output from a single CSD field.
_refine_ls_R_factor_gt 0.026
_refine_ls_wR_factor_gt 0.026
_symmetry_cell_setting cubic
_symmetry_space_group_name_H-M 'P 21 3'
_symmetry_Int_Tables_number 198
loop_
_symmetry_equiv_pos_site_id
_symmetry_equiv_pos_as_xyz
1 x,y,z
2 z,x,y
3 y,z,x
4 1/2+x,1/2-y,-z
5 1/2+z,1/2-x,-y
6 1/2+y,1/2-z,-x
7 -x,1/2+y,1/2-z
8 -z,1/2+x,1/2-y
9 -y,1/2+z,1/2-x
10 1/2-x,-y,1/2+z
11 1/2-z,-x,1/2+y
12 1/2-y,-z,1/2+x
_cell_length_a 15.530(5)
_cell_length_b 15.530(5)
_cell_length_c 15.530(5)
_cell_angle_alpha 90
_cell_angle_beta 90
_cell_angle_gamma 90
_cell_formula_units_Z 4
loop_
_atom_type_symbol
_atom_type_radius_bond
C 0.68
Cl 0.99
P 1.05
Si 1.20
Ti 1.47
loop_
_atom_site_label
_atom_site_type_symbol
_atom_site_fract_x
_atom_site_fract_y
_atom_site_fract_z
Ti1 Ti 0.50000(5) 0.50000(5) 0.00000(5)
Cl1 Cl 0.46213(7) 0.38218(6) 0.07900(7)
P1 P 0.39957(6) 0.60043(6) 0.10043(6)
P2 P 0.59972(6) 0.40028(6) -0.09972(6)
Si1 Si 0.3885(1) 0.55098(8) 0.23799(8)
Si2 Si 0.72807(8) 0.36903(8) -0.03646(8)
C1 C 0.4987(3) 0.5173(3) 0.2724(3)
C2 C 0.3513(4) 0.6376(3) 0.3134(3)
C3 C 0.3103(3) 0.4588(3) 0.2421(3)
C4 C 0.7057(3) 0.3485(3) 0.0793(3)
C5 C 0.8039(2) 0.4610(3) -0.0464(3)
C6 C 0.7799(3) 0.2738(3) -0.0866(4)
Cl1H Cl 0.61782(7) 0.57900(6) 0.03787(7)
Cl1J Cl 0.42100(7) 0.53787(6) -0.11782(7)
Si1H Si 0.44902(10) 0.73799(8) 0.11150(8)
Si1J Si 0.26201(10) 0.61150(8) 0.05098(8)
Si2H Si 0.63097(8) 0.46354(8) -0.22807(8)
Si2J Si 0.53646(8) 0.27193(8) -0.13097(8)
C1H C 0.4827(3) 0.7724(3) 0.0013(3)
C2H C 0.3624(4) 0.8134(3) 0.1487(3)
C3H C 0.5412(3) 0.7421(3) 0.1897(3)
C1J C 0.2276(3) 0.5013(3) 0.0173(3)
C2J C 0.1866(4) 0.6487(3) 0.1376(3)
C3J C 0.2579(3) 0.6897(3) -0.0412(3)
C4H C 0.6515(3) 0.5793(3) -0.2057(3)
C5H C 0.5390(2) 0.4536(3) -0.3039(3)
C6H C 0.7262(3) 0.4134(3) -0.2799(4)
C4J C 0.4207(3) 0.2943(3) -0.1515(3)
C5J C 0.5464(2) 0.1961(3) -0.0390(3)
C6J C 0.5866(3) 0.2201(3) -0.2262(4)
#END

data_CSD_CIF_KOFFAM01
_audit_creation_date 2009-03-13
_audit_creation_method CSD-ConQuest-V1
_database_code_CSD KOFFAM01
_database_code_depnum_ccdc_archive 'CCDC 678386'
_chemical_formula_sum 'C18 H21 Cl3 N4 O12'
_chemical_formula_moiety
;
C18 H21 N4 3+,3(Cl1 O4 1-)
;
_journal_coden_Cambridge 1078
_journal_year 2008
_journal_name_full 'CSD Communication(Private Communication) '
loop_
_publ_author_name
"S.R.Randeniya"
"R.E.Norman"
"F.R.Fronczek"
_chemical_name_systematic
;
tris((2-Pyridinio)methyl)amine triperchlorate
;
_cell_volume   2318.154
_exptl_crystal_colour 'tan'
_exptl_crystal_density_diffrn 1.695
_exptl_special_details
;
Absolute configuration
contribution from Department of Chemistry, Louisiana State University, Baton 
Rouge, LA 70803-1804, USA
;
_diffrn_ambient_temperature 90
#These two values have been output from a single CSD field.
_refine_ls_R_factor_gt 0.041
_refine_ls_wR_factor_gt 0.041
_symmetry_cell_setting cubic
_symmetry_space_group_name_H-M 'P 21 3'
_symmetry_Int_Tables_number 198
loop_
_symmetry_equiv_pos_site_id
_symmetry_equiv_pos_as_xyz
1 x,y,z
2 1/2-x,-y,1/2+z
3 1/2+x,1/2-y,-z
4 -x,1/2+y,1/2-z
5 z,x,y
6 y,z,x
7 1/2-z,-x,1/2+y
8 -y,1/2+z,1/2-x
9 1/2+z,1/2-x,-y
10 1/2-y,-z,1/2+x
11 -z,1/2+x,1/2-y
12 1/2+y,1/2-z,-x
_cell_length_a 13.2347(3)
_cell_length_b 13.2347(3)
_cell_length_c 13.2347(3)
_cell_angle_alpha 90
_cell_angle_beta 90
_cell_angle_gamma 90
_cell_formula_units_Z 4
loop_
_atom_type_symbol
_atom_type_radius_bond
C 0.68
H 0.23
Cl 0.99
N 0.68
O 0.68
loop_
_atom_site_label
_atom_site_type_symbol
_atom_site_fract_x
_atom_site_fract_y
_atom_site_fract_z
Cl1 Cl 0.09448(3) 0.09448(3) 0.09448(3)
Cl2 Cl 0.40945(3) 0.40945(3) 0.40945(3)
Cl3 Cl 0.78489(3) 0.78489(3) 0.78489(3)
O1 O 0.15779(10) 0.15779(10) 0.15779(10)
O2 O 0.11829(10) -0.01081(9) 0.11322(9)
O3 O 0.34675(10) 0.34675(10) 0.34675(10)
O4 O 0.36454(10) 0.41872(11) 0.50865(10)
O5 O 0.84757(9) 0.84757(9) 0.84757(9)
O6 O 0.84221(9) 0.74895(9) 0.69837(9)
N1 N 0.59832(10) 0.59832(10) 0.59832(10)
N2 N 0.71660(11) 0.76926(10) 0.52006(10)
H1 H 0.7513(17) 0.7363(17) 0.5649(17)
C1 C 0.64490(11) 0.72028(12) 0.46680(11)
C2 C 0.59176(13) 0.77284(12) 0.39427(12)
H2 H 0.53970 0.74050 0.35680
C3 C 0.61531(14) 0.87413(14) 0.37645(13)
H3 H 0.57960 0.91080 0.32620
C4 C 0.69062(14) 0.92131(12) 0.43191(13)
H4 H 0.70750 0.99000 0.41950
C5 C 0.74052(13) 0.86689(12) 0.50527(12)
H5 H 0.79140 0.89810 0.54510
C6 C 0.62893(12) 0.61072(12) 0.49141(11)
H6 H 0.57590 0.58260 0.44680
H7 H 0.69220 0.57280 0.47900
O2D O 0.11322(10) 0.11829(9) -0.01081(9)
O2E O -0.01081(10) 0.11322(9) 0.11829(9)
O4D O 0.50865(10) 0.36454(11) 0.41872(10)
O4E O 0.41872(10) 0.50865(11) 0.36454(10)
O6D O 0.69837(9) 0.84221(9) 0.74895(9)
O6E O 0.74895(9) 0.69837(9) 0.84221(9)
N2D N 0.52006(11) 0.7166(1) 0.76926(10)
N2E N 0.76926(11) 0.52006(10) 0.7166(1)
H1D H 0.5649(17) 0.7513(17) 0.7363(17)
H1E H 0.7363(17) 0.5649(17) 0.7513(17)
C1D C 0.46680(11) 0.64490(12) 0.72028(11)
C1E C 0.72028(11) 0.46680(12) 0.64490(11)
C2D C 0.39427(13) 0.59176(12) 0.77284(12)
C2E C 0.77284(13) 0.39427(12) 0.59176(12)
H2D H 0.35680 0.53970 0.74050
H2E H 0.74050 0.35680 0.53970
C3D C 0.37645(14) 0.61531(14) 0.87413(13)
C3E C 0.87413(14) 0.37645(14) 0.61531(13)
H3D H 0.32620 0.57960 0.91080
H3E H 0.91080 0.32620 0.57960
C4D C 0.43191(14) 0.69062(12) 0.92131(13)
C4E C 0.92131(14) 0.43191(12) 0.69062(13)
H4D H 0.41950 0.70750 0.99000
H4E H 0.99000 0.41950 0.70750
C5D C 0.50527(13) 0.74052(12) 0.86689(12)
C5E C 0.86689(13) 0.50527(12) 0.74052(12)
H5D H 0.54510 0.79140 0.89810
H5E H 0.89810 0.54510 0.79140
C6D C 0.49141(12) 0.62893(12) 0.61072(11)
C6E C 0.61072(12) 0.49141(12) 0.62893(11)
H6D H 0.44680 0.57590 0.58260
H6E H 0.58260 0.44680 0.57590
H7D H 0.47900 0.69220 0.57280
H7E H 0.57280 0.47900 0.69220
#END

data_CSD_CIF_KURTIA
_audit_creation_date 1993-05-14
_audit_creation_method CSD-ConQuest-V1
_database_code_CSD KURTIA
_chemical_formula_sum 'C12 H36 Cl2 Cu2 P4'
_chemical_formula_moiety
;
C12 H36 Cu1 P4 1+,Cl2 Cu1 1-
;
_journal_coden_Cambridge 186
_journal_year 1992
_journal_page_first 3111
_journal_name_full 'J.Chem.Soc.,Dalton Trans. '
loop_
_publ_author_name
"Kai-Ming Chi"
"J.Farkas"
"M.J.Hampden-Smith"
"T.T.Kodas"
"E.N.Duesler"
_chemical_name_systematic
;
tetrakis(Trimethylphosphine)-copper dichloro-copper
;
_cell_volume   2506.588
_exptl_crystal_colour 'colorless'
_exptl_crystal_density_diffrn 1.331
_diffrn_ambient_temperature ?
_diffrn_special_details
;
The study was carried out at room temperature,in the range 283-303K

;
#These two values have been output from a single CSD field.
_refine_ls_R_factor_gt 0.0295
_refine_ls_wR_factor_gt 0.0295
_symmetry_cell_setting cubic
_symmetry_space_group_name_H-M 'P 21 3'
_symmetry_Int_Tables_number 198
loop_
_symmetry_equiv_pos_site_id
_symmetry_equiv_pos_as_xyz
1 x,y,z
2 z,x,y
3 y,z,x
4 1/2+x,1/2-y,-z
5 1/2+z,1/2-x,-y
6 1/2+y,1/2-z,-x
7 -x,1/2+y,1/2-z
8 -z,1/2+x,1/2-y
9 -y,1/2+z,1/2-x
10 1/2-x,-y,1/2+z
11 1/2-z,-x,1/2+y
12 1/2-y,-z,1/2+x
_cell_length_a 13.584(1)
_cell_length_b 13.584(1)
_cell_length_c 13.584(1)
_cell_angle_alpha 90
_cell_angle_beta 90
_cell_angle_gamma 90
_cell_formula_units_Z 4
loop_
_atom_type_symbol
_atom_type_radius_bond
C 0.68
H 0.23
Cl 0.92
Cu 1.52
P 1.05
loop_
_atom_site_label
_atom_site_type_symbol
_atom_site_fract_x
_atom_site_fract_y
_atom_site_fract_z
Cu1 Cu 0.0434(1) 0.0434(1) 0.0434(1)
P1 P -0.0526(1) -0.0526(1) -0.0526(1)
C1 C -0.0760(6) -0.1758(5) -0.0073(5)
P2 P 0.0616(1) 0.1937(1) -0.0273(1)
C2 C 0.1529(4) 0.2744(4) 0.0261(5)
C3 C -0.0460(4) 0.2720(4) -0.0265(6)
C4 C 0.0957(6) 0.1954(5) -0.1562(4)
Cu2 Cu 0.3665(1) 0.3665(1) 0.3665(1)
Cl1 Cl 0.4550(1) 0.4550(1) 0.4550(1)
Cl2 Cl 0.2793(1) 0.2793(1) 0.2793(1)
H1 H -0.11720 -0.21030 -0.05310
H2 H -0.10830 -0.17210 0.05540
H3 H -0.01460 -0.21020 -0.00020
H4 H 0.21480 0.24050 0.02990
H5 H 0.13240 0.29340 0.09100
H6 H 0.16000 0.33200 -0.01430
H7 H -0.10090 0.23670 -0.05380
H8 H -0.03340 0.32960 -0.06540
H9 H -0.06100 0.29110 0.03980
H10 H 0.05150 0.15430 -0.19300
H11 H 0.16170 0.17120 -0.16320
H12 H 0.09220 0.26160 -0.18060
P2A P -0.0273(1) 0.0616(1) 0.1937(1)
P2B P 0.1937(1) -0.0273(1) 0.0616(1)
C1A C -0.0073(6) -0.0760(5) -0.1758(5)
C1B C -0.1758(6) -0.0073(5) -0.0760(5)
C2A C 0.0261(4) 0.1529(4) 0.2744(5)
C3A C -0.0265(4) -0.0460(4) 0.2720(6)
C4A C -0.1562(6) 0.0957(5) 0.1954(4)
C2B C 0.2744(4) 0.0261(4) 0.1529(5)
C3B C 0.2720(4) -0.0265(4) -0.0460(6)
C4B C 0.1954(6) -0.1562(5) 0.0957(4)
H1A H -0.05310 -0.11720 -0.21030
H2A H 0.05540 -0.10830 -0.17210
H3A H -0.00020 -0.01460 -0.21020
H1B H -0.21030 -0.05310 -0.11720
H2B H -0.17210 0.05540 -0.10830
H3B H -0.21020 -0.00020 -0.01460
H4A H 0.02990 0.21480 0.24050
H5A H 0.09100 0.13240 0.29340
H6A H -0.01430 0.16000 0.33200
H7A H -0.05380 -0.10090 0.23670
H8A H -0.06540 -0.03340 0.32960
H9A H 0.03980 -0.06100 0.29110
H10A H -0.19300 0.05150 0.15430
H11A H -0.16320 0.16170 0.17120
H12A H -0.18060 0.09220 0.26160
H4B H 0.24050 0.02990 0.21480
H5B H 0.29340 0.09100 0.13240
H6B H 0.33200 -0.01430 0.16000
H7B H 0.23670 -0.05380 -0.10090
H8B H 0.32960 -0.06540 -0.03340
H9B H 0.29110 0.03980 -0.06100
H10B H 0.15430 -0.19300 0.05150
H11B H 0.17120 -0.16320 0.16170
H12B H 0.26160 -0.18060 0.09220
#END

data_CSD_CIF_KURTIA01
_audit_creation_date 2004-06-17
_audit_creation_method CSD-ConQuest-V1
_database_code_CSD KURTIA01
_database_code_depnum_ccdc_archive 'CCDC 199145'
_chemical_formula_sum 'C12 H36 Cl2 Cu2 P4'
_chemical_formula_moiety
;
C12 H36 Cu1 P4 1+,Cl2 Cu1 1-
;
_journal_coeditor_code "IUCr LH6159"
_journal_coden_Cambridge 1370
_journal_volume 60
_journal_year 2004
_journal_page_first m186
_journal_name_full 'Acta Crystallogr.,Sect.E:Struct.Rep.Online '
loop_
_publ_author_name
"G.Margraf"
"H.-W.Lerner"
"M.Wagner"
"M.Bolte"
_chemical_name_systematic
;
tetrakis(Trimethylphosphine)-copper(i) dichloro-copper(i)
;
_cell_volume   2451.201
_exptl_crystal_colour 'colorless'
_exptl_crystal_density_diffrn 1.361
_exptl_crystal_description 'block'
_exptl_crystal_preparation 'THF'
_diffrn_ambient_temperature 173
#These two values have been output from a single CSD field.
_refine_ls_R_factor_gt 0.0307
_refine_ls_wR_factor_gt 0.0307
_symmetry_cell_setting cubic
_symmetry_space_group_name_H-M 'P 21 3'
_symmetry_Int_Tables_number 198
loop_
_symmetry_equiv_pos_site_id
_symmetry_equiv_pos_as_xyz
1 x,y,z
2 1/2-x,-y,1/2+z
3 1/2+x,1/2-y,-z
4 -x,1/2+y,1/2-z
5 z,x,y
6 1/2-z,-x,1/2+y
7 1/2+z,1/2-x,-y
8 -z,1/2+x,1/2-y
9 y,z,x
10 1/2+y,1/2-z,-x
11 -y,1/2+z,1/2-x
12 1/2-y,-z,1/2+x
_cell_length_a 13.4832(11)
_cell_length_b 13.4832(11)
_cell_length_c 13.4832(11)
_cell_angle_alpha 90
_cell_angle_beta 90
_cell_angle_gamma 90
_cell_formula_units_Z 4
loop_
_atom_type_symbol
_atom_type_radius_bond
C 0.68
H 0.23
Cl 0.99
Cu 1.48
P 1.05
loop_
_atom_site_label
_atom_site_type_symbol
_atom_site_fract_x
_atom_site_fract_y
_atom_site_fract_z
Cu1 Cu 0.543243(16) 0.543243(16) 0.543243(16)
P1 P 0.44661(4) 0.44661(4) 0.44661(4)
P2 P 0.56283(4) 0.69364(4) 0.47078(5)
C1 C 0.4214(5) 0.3225(3) 0.4927(5)
H1 H 0.37890 0.28720 0.44540
H2 H 0.38760 0.32690 0.55690
H3 H 0.48390 0.28640 0.50070
C2 C 0.6560(2) 0.7748(2) 0.5257(3)
H4 H 0.71950 0.73960 0.52950
H5 H 0.63490 0.79400 0.59250
H6 H 0.66360 0.83420 0.48460
C3 C 0.4546(2) 0.7750(2) 0.4689(5)
H7 H 0.39780 0.73920 0.44090
H8 H 0.46880 0.83340 0.42810
H9 H 0.43890 0.79600 0.53670
C4 C 0.6003(5) 0.6932(4) 0.3404(3)
H10 H 0.55500 0.65100 0.30230
H11 H 0.66800 0.66740 0.33470
H12 H 0.59790 0.76100 0.31430
Cu2 Cu 0.86620(2) 0.86620(2) 0.86620(2)
Cl1 Cl 0.95586(7) 0.95586(7) 0.95586(7)
Cl2 Cl 0.77738(7) 0.77738(7) 0.77738(7)
C1D C 0.4927(5) 0.4214(3) 0.3225(5)
H1D H 0.44540 0.37890 0.28720
H2D H 0.55690 0.38760 0.32690
H3D H 0.50070 0.48390 0.28640
C1H C 0.3225(5) 0.4927(3) 0.4214(5)
H1H H 0.28720 0.44540 0.37890
H2H H 0.32690 0.55690 0.38760
H3H H 0.28640 0.50070 0.48390
P2D P 0.47078(4) 0.56283(4) 0.69364(5)
C2D C 0.5257(2) 0.6560(2) 0.7748(3)
H4D H 0.52950 0.71950 0.73960
H5D H 0.59250 0.63490 0.79400
H6D H 0.48460 0.66360 0.83420
C3D C 0.4689(2) 0.4546(2) 0.7750(5)
H7D H 0.44090 0.39780 0.73920
H8D H 0.42810 0.46880 0.83340
H9D H 0.53670 0.43890 0.79600
C4D C 0.3404(5) 0.6003(4) 0.6932(3)
H10D H 0.30230 0.55500 0.65100
H11D H 0.33470 0.66800 0.66740
H12D H 0.31430 0.59790 0.76100
P2H P 0.69364(4) 0.47078(4) 0.56283(5)
C2H C 0.7748(2) 0.5257(2) 0.6560(3)
H4H H 0.73960 0.52950 0.71950
H5H H 0.79400 0.59250 0.63490
H6H H 0.83420 0.48460 0.66360
C3H C 0.7750(2) 0.4689(2) 0.4546(5)
H7H H 0.73920 0.44090 0.39780
H8H H 0.83340 0.42810 0.46880
H9H H 0.79600 0.53670 0.43890
C4H C 0.6932(5) 0.3404(4) 0.6003(3)
H10H H 0.65100 0.30230 0.55500
H11H H 0.66740 0.33470 0.66800
H12H H 0.76100 0.31430 0.59790
#END

data_CSD_CIF_LAVROP01
_audit_creation_date 1996-08-20
_audit_creation_method CSD-ConQuest-V1
_database_code_CSD LAVROP01
_chemical_formula_sum 'C21 H45 F6 N4 Ni1 O6 P1'
_chemical_formula_moiety
;
C21 H45 N3 Ni1 O3 2+,N1 O3 1-,F6 P1 1-
;
_journal_coden_Cambridge 182
_journal_year 1996
_journal_page_first 525
_journal_name_full 'Chem.Commun. '
loop_
_publ_author_name
"G.T.Smith"
"P.R.Mallinson"
"R.D.Peacock"
"L.J.Farrugia"
"I.A.Fallis"
"C.S.Frampton"
"J.A.K.Howard"
_chemical_name_systematic
;
(N,N',N''-tris(2-Hydroxy-3-methylbutyl)-1,4,7-triazacyclononane)-nickel(ii) 
hexafluorophosphate nitrate
;
_cell_volume   2748.707
_exptl_crystal_colour 'blue'
_exptl_crystal_density_diffrn 1.578
_diffrn_ambient_temperature 123
#These two values have been output from a single CSD field.
_refine_ls_R_factor_gt 0.0156
_refine_ls_wR_factor_gt 0.0156
_symmetry_cell_setting cubic
_symmetry_space_group_name_H-M 'P 21 3'
_symmetry_Int_Tables_number 198
loop_
_symmetry_equiv_pos_site_id
_symmetry_equiv_pos_as_xyz
1 x,y,z
2 1/2-x,-y,1/2+z
3 1/2+x,1/2-y,-z
4 z,x,y
5 -x,1/2+y,1/2-z
6 1/2-z,-x,1/2+y
7 1/2+z,1/2-x,-y
8 -z,1/2+x,1/2-y
9 y,z,x
10 1/2+y,1/2-z,-x
11 -y,1/2+z,1/2-x
12 1/2-y,-z,1/2+x
_cell_length_a 14.008(2)
_cell_length_b 14.008(2)
_cell_length_c 14.008(2)
_cell_angle_alpha 90
_cell_angle_beta 90
_cell_angle_gamma 90
_cell_formula_units_Z 4
loop_
_atom_type_symbol
_atom_type_radius_bond
C 0.68
H 0.23
F 0.64
N 0.68
Ni 1.50
O 0.68
P 1.05
loop_
_atom_site_label
_atom_site_type_symbol
_atom_site_fract_x
_atom_site_fract_y
_atom_site_fract_z
C1 C 0.71865(6) 0.75726(6) 0.88908(6)
C2 C 0.55247(6) 0.75264(6) 0.82905(6)
C3 C 0.53932(6) 0.64485(6) 0.83321(6)
C4 C 0.77258(6) 0.66278(6) 0.87697(6)
C5 C 0.43414(6) 0.61412(6) 0.83792(7)
C6 C 0.37617(7) 0.64555(8) 0.75106(7)
C7 C 0.38801(7) 0.64858(8) 0.93078(7)
N1 N 0.65304(5) 0.77732(5) 0.80758(5)
N2 N 0.11156(6) 0.11156 0.11156
O1 O 0.58558(6) 0.60631(6) 0.74928(6)
O2 O 0.18401(10) 0.06618(9) 0.08475(9)
F1 F 0.45794(12) 0.58917(11) 0.50388(12)
F2 F 0.45354(14) 0.49970(14) 0.36844(12)
P1 P 0.47890(2) 0.47890 0.47890
Ni1 Ni 0.69346(1) 0.69346 0.69346
H1 H 0.58848 0.53519 0.75487
H2 H 0.68585 0.75800 0.94668
H3 H 0.76190 0.80856 0.89191
H4 H 0.51837 0.77067 0.78346
H5 H 0.53497 0.77700 0.88288
H6 H 0.57122 0.62374 0.89018
H7 H 0.81550 0.65933 0.91995
H8 H 0.73192 0.60405 0.88858
H9 H 0.43416 0.54176 0.84257
H10 H 0.31909 0.62092 0.75067
H11 H 0.40326 0.62504 0.70216
H12 H 0.37117 0.71026 0.74725
H13 H 0.32762 0.62196 0.93390
H14 H 0.38296 0.71681 0.92646
H15 H 0.42103 0.62680 0.98580
N1C N 0.80758(5) 0.65304(5) 0.77732(5)
C1C C 0.88908(6) 0.71865(6) 0.75726(6)
C4C C 0.87697(6) 0.77258(6) 0.66278(6)
N1H N 0.77732(5) 0.80758(5) 0.65304(5)
C1H C 0.75726(6) 0.88908(6) 0.71865(6)
C4H C 0.66278(6) 0.87697(6) 0.77258(6)
C2C C 0.82905(6) 0.55247(6) 0.75264(6)
C3C C 0.83321(6) 0.53932(6) 0.64485(6)
C5C C 0.83792(6) 0.43414(6) 0.61412(7)
C6C C 0.75106(7) 0.37617(8) 0.64555(7)
H10C H 0.75067 0.31909 0.62092
H11C H 0.70216 0.40326 0.62504
H12C H 0.74725 0.37117 0.71026
C7C C 0.93078(7) 0.38801(8) 0.64858(7)
H13C H 0.93390 0.32762 0.62196
H14C H 0.92646 0.38296 0.71681
H15C H 0.98580 0.42103 0.62680
H9C H 0.84257 0.43416 0.54176
O1C O 0.74928(6) 0.58558(6) 0.60631(6)
C2H C 0.75264(6) 0.82905(6) 0.55247(6)
C3H C 0.64485(6) 0.83321(6) 0.53932(6)
C5H C 0.61412(6) 0.83792(6) 0.43414(7)
C6H C 0.64555(7) 0.75106(8) 0.37617(7)
H10H H 0.62092 0.75067 0.31909
H11H H 0.62504 0.70216 0.40326
H12H H 0.71026 0.74725 0.37117
C7H C 0.64858(7) 0.93078(8) 0.38801(7)
H13H H 0.62196 0.93390 0.32762
H14H H 0.71681 0.92646 0.38296
H15H H 0.62680 0.98580 0.42103
H9H H 0.54176 0.84257 0.43416
O1H O 0.60631(6) 0.74928(6) 0.58558(6)
H1H H 0.53519 0.75487 0.58848
H6H H 0.62374 0.89018 0.57122
H4H H 0.77067 0.78346 0.51837
H5H H 0.77700 0.88288 0.53497
H1C H 0.75487 0.58848 0.53519
H6C H 0.89018 0.57122 0.62374
H4C H 0.78346 0.51837 0.77067
H5C H 0.88288 0.53497 0.77700
H7H H 0.65933 0.91995 0.81550
H8H H 0.60405 0.88858 0.73192
H2H H 0.75800 0.94668 0.68585
H3H H 0.80856 0.89191 0.76190
H7C H 0.91995 0.81550 0.65933
H8C H 0.88858 0.73192 0.60405
H2C H 0.94668 0.68585 0.75800
H3C H 0.89191 0.76190 0.80856
O2C O 0.08475(10) 0.18401(9) 0.06618(9)
O2H O 0.06618(10) 0.08475(9) 0.18401(9)
F1C F 0.50388(12) 0.45794(11) 0.58917(12)
F1H F 0.58917(12) 0.50388(11) 0.45794(12)
F2C F 0.36844(14) 0.45354(14) 0.49970(12)
F2H F 0.49970(14) 0.36844(14) 0.45354(12)
#END

data_CSD_CIF_LAVROP02
_audit_creation_date 1998-04-22
_audit_creation_method CSD-ConQuest-V1
_database_code_CSD LAVROP02
_chemical_formula_sum 'C21 H45 F6 N4 Ni1 O6 P1'
_chemical_formula_moiety
;
C21 H45 N3 Ni1 O3 2+,N1 O3 1-,F6 P1 1-
;
_journal_coden_Cambridge 4
_journal_volume 119
_journal_year 1997
_journal_page_first 5028
_journal_name_full 'J.Am.Chem.Soc. '
loop_
_publ_author_name
"G.T.Smith"
"P.R.Mallinson"
"C.S.Frampton"
"L.J.Farrugia"
"R.D.Peacock"
"J.A.K.Howard"
_chemical_name_systematic
;
(N,N',N''-tris(2-Hydroxy-3-methylbutyl)-1,4,7-triazacyclononane)-nickel(ii) 
nitrate hexafluorophosphate
;
_cell_volume   2748.707
_exptl_crystal_colour 'dark blue'
_exptl_crystal_density_diffrn 1.578
_diffrn_ambient_temperature 123
#These two values have been output from a single CSD field.
_refine_ls_R_factor_gt 0.0155
_refine_ls_wR_factor_gt 0.0155
_symmetry_cell_setting cubic
_symmetry_space_group_name_H-M 'P 21 3'
_symmetry_Int_Tables_number 198
loop_
_symmetry_equiv_pos_site_id
_symmetry_equiv_pos_as_xyz
1 x,y,z
2 1/2-x,-y,1/2+z
3 1/2+x,1/2-y,-z
4 z,x,y
5 -x,1/2+y,1/2-z
6 1/2-z,-x,1/2+y
7 1/2+z,1/2-x,-y
8 -z,1/2+x,1/2-y
9 y,z,x
10 1/2+y,1/2-z,-x
11 -y,1/2+z,1/2-x
12 1/2-y,-z,1/2+x
_cell_length_a 14.008(2)
_cell_length_b 14.008(2)
_cell_length_c 14.008(2)
_cell_angle_alpha 90
_cell_angle_beta 90
_cell_angle_gamma 90
_cell_formula_units_Z 4
loop_
_atom_type_symbol
_atom_type_radius_bond
C 0.68
H 0.23
F 0.64
N 0.68
Ni 1.50
O 0.68
P 1.05
loop_
_atom_site_label
_atom_site_type_symbol
_atom_site_fract_x
_atom_site_fract_y
_atom_site_fract_z
C1 C 0.71871(6) 0.75719(5) 0.88904(5)
C2 C 0.55247(5) 0.75260(5) 0.82903(5)
C3 C 0.53932(5) 0.64485(5) 0.83317(6)
C4 C 0.77258(6) 0.66280(5) 0.87696(5)
C5 C 0.43412(5) 0.61418(6) 0.83785(6)
C6 C 0.37606(6) 0.64553(7) 0.75107(7)
C7 C 0.38811(7) 0.64867(8) 0.93078(7)
N1 N 0.65302(4) 0.77735(4) 0.80758(5)
N2 N 0.11157(6) 0.11157 0.11157
O1 O 0.58557(5) 0.60630(5) 0.74930(6)
O2 O 0.18402(10) 0.06618(9) 0.08480(8)
F1 F 0.45801(12) 0.58917(11) 0.50388(12)
F2 F 0.45349(14) 0.49967(14) 0.36840(12)
P1 P 0.47892(1) 0.47892 0.47892
Ni1 Ni 0.69344(1) 0.69344 0.69344
H1 H 0.58967 0.53552 0.75716
H2 H 0.67818 0.75712 0.95303
H3 H 0.76752 0.81496 0.89327
H4 H 0.50725 0.77873 0.77424
H5 H 0.53217 0.78181 0.89583
H6 H 0.57201 0.61859 0.89619
H7 H 0.82965 0.65996 0.92662
H8 H 0.72557 0.60434 0.88719
H9 H 0.43139 0.53862 0.84172
H10 H 0.30642 0.61588 0.75168
H11 H 0.40746 0.61804 0.68795
H12 H 0.36676 0.72052 0.74656
H13 H 0.31903 0.61848 0.93771
H14 H 0.38221 0.72406 0.93079
H15 H 0.42699 0.62805 0.99237
N1C N 0.80758(4) 0.65302(4) 0.77735(5)
C1C C 0.88904(6) 0.71871(5) 0.75719(5)
C4C C 0.87696(6) 0.77258(5) 0.66280(5)
N1H N 0.77735(4) 0.80758(4) 0.65302(5)
C1H C 0.75719(6) 0.88904(5) 0.71871(5)
C4H C 0.66280(6) 0.87696(5) 0.77258(5)
C2C C 0.82903(5) 0.55247(5) 0.75260(5)
C3C C 0.83317(5) 0.53932(5) 0.64485(6)
C5C C 0.83785(5) 0.43412(6) 0.61418(6)
C6C C 0.75107(6) 0.37606(7) 0.64553(7)
H10C H 0.75168 0.30642 0.61588
H11C H 0.68795 0.40746 0.61804
H12C H 0.74656 0.36676 0.72052
C7C C 0.93078(7) 0.38811(8) 0.64867(7)
H13C H 0.93771 0.31903 0.61848
H14C H 0.93079 0.38221 0.72406
H15C H 0.99237 0.42699 0.62805
H9C H 0.84172 0.43139 0.53862
O1C O 0.74930(5) 0.58557(5) 0.60630(6)
C2H C 0.75260(5) 0.82903(5) 0.55247(5)
C3H C 0.64485(5) 0.83317(5) 0.53932(6)
C5H C 0.61418(5) 0.83785(6) 0.43412(6)
C6H C 0.64553(6) 0.75107(7) 0.37606(7)
H10H H 0.61588 0.75168 0.30642
H11H H 0.61804 0.68795 0.40746
H12H H 0.72052 0.74656 0.36676
C7H C 0.64867(7) 0.93078(8) 0.38811(7)
H13H H 0.61848 0.93771 0.31903
H14H H 0.72406 0.93079 0.38221
H15H H 0.62805 0.99237 0.42699
H9H H 0.53862 0.84172 0.43139
O1H O 0.60630(5) 0.74930(5) 0.58557(6)
H1H H 0.53552 0.75716 0.58967
H6H H 0.61859 0.89619 0.57201
H4H H 0.77873 0.77424 0.50725
H5H H 0.78181 0.89583 0.53217
H1C H 0.75716 0.58967 0.53552
H6C H 0.89619 0.57201 0.61859
H4C H 0.77424 0.50725 0.77873
H5C H 0.89583 0.53217 0.78181
H7H H 0.65996 0.92662 0.82965
H8H H 0.60434 0.88719 0.72557
H2H H 0.75712 0.95303 0.67818
H3H H 0.81496 0.89327 0.76752
H7C H 0.92662 0.82965 0.65996
H8C H 0.88719 0.72557 0.60434
H2C H 0.95303 0.67818 0.75712
H3C H 0.89327 0.76752 0.81496
O2C O 0.0848(1) 0.18402(9) 0.06618(8)
O2H O 0.06618(10) 0.08480(9) 0.18402(8)
F1C F 0.50388(12) 0.45801(11) 0.58917(12)
F1H F 0.58917(12) 0.50388(11) 0.45801(12)
F2C F 0.36840(14) 0.45349(14) 0.49967(12)
F2H F 0.49967(14) 0.36840(14) 0.45349(12)
#END

data_CSD_CIF_LAVROP03
_audit_creation_date 2006-05-24
_audit_creation_method CSD-ConQuest-V1
_database_code_CSD LAVROP03
_database_code_depnum_ccdc_archive 'CCDC 605616'
_chemical_formula_sum 'C21 H45 F6 N4 Ni1 O6 P1'
_chemical_formula_moiety
;
C21 H45 N3 Ni1 O3 2+,N1 O3 1-,F6 P1 1-
;
_journal_coeditor_code "IUCr BS5024"
_journal_coden_Cambridge 622
_journal_volume 62
_journal_year 2006
_journal_page_first 236
_journal_name_full 'Acta Crystallogr.,Sect.B:Struct.Sci. '
loop_
_publ_author_name
"L.J.Farrugia"
"C.S.Frampton"
"J.A.K.Howard"
"P.R.Mallinson"
"R.D.Peacock"
"G.T.Smith"
"B.Stewart"
_chemical_name_systematic
;
(N,N',N''-tris(2-Hydroxy-3-methylbutyl)-1,4,7-triazacyclononane)-nickel(ii) 
nitrate hexafluorophosphate
;
_cell_volume   2748.707
_exptl_crystal_colour 'dark blue'
_exptl_crystal_density_diffrn 1.579
_exptl_special_details
;
Absolute configuration

;
_exptl_crystal_description 'octahedron'
_diffrn_ambient_temperature 123
#These two values have been output from a single CSD field.
_refine_ls_R_factor_gt 0.0152
_refine_ls_wR_factor_gt 0.0152
_symmetry_cell_setting cubic
_symmetry_space_group_name_H-M 'P 21 3'
_symmetry_Int_Tables_number 198
loop_
_symmetry_equiv_pos_site_id
_symmetry_equiv_pos_as_xyz
1 x,y,z
2 1/2-x,-y,1/2+z
3 1/2+x,1/2-y,-z
4 z,x,y
5 -x,1/2+y,1/2-z
6 1/2-z,-x,1/2+y
7 1/2+z,1/2-x,-y
8 -z,1/2+x,1/2-y
9 y,z,x
10 1/2+y,1/2-z,-x
11 -y,1/2+z,1/2-x
12 1/2-y,-z,1/2+x
_cell_length_a 14.008(2)
_cell_length_b 14.008(2)
_cell_length_c 14.008(2)
_cell_angle_alpha 90
_cell_angle_beta 90
_cell_angle_gamma 90
_cell_formula_units_Z 4
loop_
_atom_type_symbol
_atom_type_radius_bond
C 0.68
H 0.23
F 0.64
N 0.68
Ni 1.50
O 0.68
P 1.05
loop_
_atom_site_label
_atom_site_type_symbol
_atom_site_fract_x
_atom_site_fract_y
_atom_site_fract_z
Ni1 Ni 0.693453(10) 0.693453(10) 0.693453(10)
P1 P 0.478922(14) 0.478922(14) 0.478922(14)
F1 F 0.45799(10) 0.58899(9) 0.5038(1)
F2 F 0.45338(11) 0.49956(11) 0.36843(9)
O1 O 0.58562(5) 0.60631(5) 0.74924(5)
O2 O 0.18411(6) 0.06619(6) 0.08485(6)
N1 N 0.65304(4) 0.77733(4) 0.80759(5)
N2 N 0.11162(5) 0.11162(5) 0.11162(5)
C1 C 0.71871(5) 0.75723(5) 0.88902(5)
C2 C 0.55250(5) 0.75265(5) 0.82905(5)
C3 C 0.53937(5) 0.64485(5) 0.83321(5)
C4 C 0.66283(5) 0.87696(5) 0.77259(5)
C5 C 0.43404(5) 0.61416(6) 0.83787(6)
C6 C 0.37601(6) 0.64559(7) 0.75103(6)
C7 C 0.38804(6) 0.64876(7) 0.93077(6)
H1 H 0.67784 0.75478 0.95460
H2 H 0.76990 0.81483 0.89530
H3 H 0.50627 0.78210 0.77452
H4 H 0.53221 0.78371 0.89688
H5 H 0.57562 0.61785 0.89593
H6 H 0.66059 0.92580 0.83247
H7 H 0.60381 0.89405 0.72566
H8 H 0.43274 0.53687 0.83939
H9 H 0.30501 0.61524 0.75493
H10 H 0.41082 0.62082 0.68659
H11 H 0.37111 0.72273 0.74952
H12 H 0.38488 0.72600 0.93070
H13 H 0.43060 0.62496 0.99077
H14 H 0.31657 0.61986 0.93668
H15 H 0.58838 0.53540 0.75699
F1C F 0.5038(1) 0.45799(9) 0.58899(10)
F1H F 0.58899(10) 0.50380(9) 0.45799(10)
F2C F 0.36843(11) 0.45338(11) 0.49956(9)
F2H F 0.49956(11) 0.36843(11) 0.45338(9)
O1C O 0.74924(5) 0.58562(5) 0.60631(5)
O1H O 0.60631(5) 0.74924(5) 0.58562(5)
O2H O 0.06619(6) 0.08485(6) 0.18411(6)
O2C O 0.08485(6) 0.18411(6) 0.06619(6)
N1C N 0.80759(4) 0.65304(4) 0.77733(5)
N1H N 0.77733(4) 0.80759(4) 0.65304(5)
C1H C 0.75723(5) 0.88902(5) 0.71871(5)
C1C C 0.88902(5) 0.71871(5) 0.75723(5)
C2C C 0.82905(5) 0.55250(5) 0.75265(5)
C2H C 0.75265(5) 0.82905(5) 0.55250(5)
C3C C 0.83321(5) 0.53937(5) 0.64485(5)
C3H C 0.64485(5) 0.83321(5) 0.53937(5)
C4C C 0.77259(5) 0.66283(5) 0.87696(5)
C4H C 0.87696(5) 0.77259(5) 0.66283(5)
C5H C 0.61416(5) 0.83787(6) 0.43404(6)
C5C C 0.83787(5) 0.43404(6) 0.61416(6)
C6H C 0.64559(6) 0.75103(7) 0.37601(6)
C6C C 0.75103(6) 0.37601(7) 0.64559(6)
C7H C 0.64876(6) 0.93077(7) 0.38804(6)
C7C C 0.93077(6) 0.38804(7) 0.64876(6)
H1C H 0.95460 0.67784 0.75478
H1H H 0.75478 0.95460 0.67784
H2C H 0.89530 0.76990 0.81483
H2H H 0.81483 0.89530 0.76990
H3H H 0.78210 0.77452 0.50627
H3C H 0.77452 0.50627 0.78210
H4H H 0.78371 0.89688 0.53221
H4C H 0.89688 0.53221 0.78371
H5H H 0.61785 0.89593 0.57562
H5C H 0.89593 0.57562 0.61785
H6H H 0.92580 0.83247 0.66059
H6C H 0.83247 0.66059 0.92580
H7H H 0.89405 0.72566 0.60381
H7C H 0.72566 0.60381 0.89405
H8H H 0.53687 0.83939 0.43274
H8C H 0.83939 0.43274 0.53687
H9H H 0.61524 0.75493 0.30501
H9C H 0.75493 0.30501 0.61524
H10H H 0.62082 0.68659 0.41082
H10C H 0.68659 0.41082 0.62082
H11H H 0.72273 0.74952 0.37111
H11C H 0.74952 0.37111 0.72273
H12H H 0.72600 0.93070 0.38488
H12C H 0.93070 0.38488 0.72600
H13H H 0.62496 0.99077 0.43060
H13C H 0.99077 0.43060 0.62496
H14H H 0.61986 0.93668 0.31657
H14C H 0.93668 0.31657 0.61986
H15H H 0.53540 0.75699 0.58838
H15C H 0.75699 0.58838 0.53540
#END

data_CSD_CIF_LIZKIO
_audit_creation_date 2000-08-04
_audit_creation_method CSD-ConQuest-V1
_database_code_CSD LIZKIO
_database_code_depnum_ccdc_archive 'CCDC 136426'
_chemical_formula_sum 'C9 H27 Cl1 Cu1 N1 Sn3'
_chemical_formula_moiety
;
C9 H27 Cl1 Cu1 N1 Sn3
;
_journal_coden_Cambridge 29
_journal_volume 626
_journal_year 2000
_journal_page_first 1317
_journal_name_full 'Z.Anorg.Allg.Chem. '
loop_
_publ_author_name
"P.Reiss"
"D.Fenske"
_chemical_name_systematic
;
Chloro-(tris(trimethylstannyl)amido)-copper
;
_cell_volume   3726.759
_exptl_crystal_colour 'orange'
_exptl_crystal_density_diffrn 2.154
_diffrn_ambient_temperature 190
#These two values have been output from a single CSD field.
_refine_ls_R_factor_gt 0.0233
_refine_ls_wR_factor_gt 0.0233
_symmetry_cell_setting cubic
_symmetry_space_group_name_H-M 'P 21 3'
_symmetry_Int_Tables_number 198
loop_
_symmetry_equiv_pos_site_id
_symmetry_equiv_pos_as_xyz
1 x,y,z
2 1/2-x,-y,1/2+z
3 -x,1/2+y,1/2-z
4 1/2+x,1/2-y,-z
5 z,x,y
6 1/2+z,1/2-x,-y
7 1/2-z,-x,1/2+y
8 -z,1/2+x,1/2-y
9 y,z,x
10 -y,1/2+z,1/2-x
11 1/2+y,1/2-z,-x
12 1/2-y,-z,1/2+x
_cell_length_a 15.504(2)
_cell_length_b 15.504(2)
_cell_length_c 15.504(2)
_cell_angle_alpha 90
_cell_angle_beta 90
_cell_angle_gamma 90
_cell_formula_units_Z 8
loop_
_atom_type_symbol
_atom_type_radius_bond
C 0.68
H 0.23
Cl 0.99
Cu 1.32
N 0.68
Sn 1.46
loop_
_atom_site_label
_atom_site_type_symbol
_atom_site_fract_x
_atom_site_fract_y
_atom_site_fract_z
Sn1 Sn 0.45858(2) 0.27661(2) 1.33152(2)
Cu1 Cu 0.26441(4) 0.26441(4) 1.26441(4)
Cl1 Cl 0.18590(8) 0.18590(8) 1.18590(8)
N1 N 0.3351(3) 0.3351(3) 1.3351(3)
C1 C 0.5482(3) 0.3774(4) 1.3612(4)
H1 H 0.6033(9) 0.3657(15) 1.3327(23)
H2 H 0.5569(22) 0.3801(19) 1.4238(5)
H3 H 0.5253(13) 0.4327(6) 1.3408(25)
C2 C 0.4715(4) 0.2222(4) 1.2051(3)
H4 H 0.5298(10) 0.1989(27) 1.1981(11)
H5 H 0.4614(30) 0.2670(8) 1.1617(3)
H6 H 0.4292(20) 0.1758(20) 1.1977(11)
C3 C 0.4621(4) 0.1754(4) 1.4261(4)
H7 H 0.5194(9) 0.1488(19) 1.4263(20)
H8 H 0.4187(20) 0.1317(15) 1.4118(16)
H9 H 0.4497(28) 0.1995(6) 1.4832(6)
Sn2 Sn 0.28065(2) 0.17085(2) 0.96134(2)
Cu2 Cu 0.26578(4) 0.23422(4) 0.76578(4)
Cl2 Cl 0.18723(9) 0.31277(9) 0.68723(9)
N2 N 0.3354(3) 0.1646(3) 0.8354(3)
C4 C 0.1435(3) 0.1576(4) 0.9474(4)
H10 H 0.1277(5) 0.0965(5) 0.9512(30)
H11 H 0.1257(5) 0.1805(27) 0.8913(13)
H12 H 0.1144(3) 0.1897(25) 0.9935(18)
C5 C 0.3126(4) 0.2943(3) 1.0125(3)
H13 H 0.2904(26) 0.2991(12) 1.0715(11)
H14 H 0.2867(25) 0.3394(3) 0.9765(17)
H15 H 0.3754(4) 0.3013(12) 1.0130(27)
C6 C 0.3370(4) 0.0689(3) 1.0345(3)
H16 H 0.3999(4) 0.0718(16) 1.0297(22)
H17 H 0.3166(21) 0.0133(3) 1.0123(17)
H18 H 0.3202(22) 0.0748(16) 1.0952(6)
Sn1H Sn 0.27661(2) 0.33152(2) 1.45858(2)
C1H C 0.3774(3) 0.3612(4) 1.5482(4)
H1H H 0.3657(9) 0.3327(15) 1.6033(23)
H2H H 0.3801(22) 0.4238(19) 1.5569(5)
H3H H 0.4327(13) 0.3408(6) 1.5253(25)
C2H C 0.2222(4) 0.2051(4) 1.4715(3)
H4H H 0.1989(10) 0.1981(27) 1.5298(11)
H5H H 0.267(3) 0.1617(8) 1.4614(3)
H6H H 0.1758(20) 0.1977(20) 1.4292(11)
C3H C 0.1754(4) 0.4261(4) 1.4621(4)
H7H H 0.1488(9) 0.4263(19) 1.5194(20)
H8H H 0.1317(20) 0.4118(15) 1.4187(16)
H9H H 0.1995(28) 0.4832(6) 1.4497(6)
Sn1D Sn 0.33152(2) 0.45858(2) 1.27661(2)
C1D C 0.3612(3) 0.5482(4) 1.3774(4)
H1D H 0.3327(9) 0.6033(15) 1.3657(23)
H2D H 0.4238(22) 0.5569(19) 1.3801(5)
H3D H 0.3408(13) 0.5253(6) 1.4327(25)
C2D C 0.2051(4) 0.4715(4) 1.2222(3)
H4D H 0.1981(10) 0.5298(27) 1.1989(11)
H5D H 0.1617(30) 0.4614(8) 1.2670(3)
H6D H 0.1977(20) 0.4292(20) 1.1758(11)
C3D C 0.4261(4) 0.4621(4) 1.1754(4)
H7D H 0.4263(9) 0.5194(19) 1.1488(20)
H8D H 0.4118(20) 0.4187(15) 1.1317(16)
H9D H 0.4832(28) 0.4497(6) 1.1995(6)
Sn2K Sn 0.32915(2) 0.03866(2) 0.78065(2)
C4K C 0.3424(3) 0.0526(4) 0.6435(4)
H10K H 0.4035(5) 0.0488(5) 0.6277(30)
H11K H 0.3195(5) 0.1087(27) 0.6257(13)
H12K H 0.3103(3) 0.0065(25) 0.6144(18)
C5K C 0.2057(4) -0.0125(3) 0.8126(3)
H13K H 0.2009(26) -0.0715(12) 0.7904(11)
H14K H 0.1606(25) 0.0235(3) 0.7867(17)
H15K H 0.1987(4) -0.0130(12) 0.8754(27)
C6K C 0.4311(4) -0.0345(3) 0.8370(3)
H16K H 0.4282(4) -0.0297(16) 0.8999(22)
H17K H 0.4867(21) -0.0123(3) 0.8166(17)
H18K H 0.4252(22) -0.0952(16) 0.8202(6)
Sn2E Sn 0.46134(2) 0.21935(2) 0.82915(2)
C4E C 0.4474(3) 0.3565(4) 0.8424(4)
H10E H 0.4512(5) 0.3723(5) 0.9035(30)
H11E H 0.3913(5) 0.3743(27) 0.8195(13)
H12E H 0.4935(3) 0.3856(25) 0.8103(18)
C5E C 0.5125(4) 0.1874(3) 0.7057(3)
H13E H 0.5715(26) 0.2096(12) 0.7009(11)
H14E H 0.4765(25) 0.2133(3) 0.6606(17)
H15E H 0.5130(4) 0.1246(12) 0.6987(27)
C6E C 0.5345(4) 0.1630(3) 0.9311(3)
H16E H 0.5297(4) 0.1001(16) 0.9282(22)
H17E H 0.5123(21) 0.1834(3) 0.9867(17)
H18E H 0.5952(22) 0.1798(16) 0.9252(6)
#END

data_CSD_CIF_NAMXOP
_audit_creation_date 2005-07-19
_audit_creation_method CSD-ConQuest-V1
_database_code_CSD NAMXOP
_database_code_depnum_ccdc_archive 'CCDC 194424'
_chemical_formula_sum 'C6 H17 Mo1 N3 S4'
_chemical_formula_moiety
;
H4 N1 1+,C6 H13 N2 1+,Mo1 S4 2-
;
_journal_coden_Cambridge 82
_journal_volume 45
_journal_year 2004
_journal_page_first 945
_journal_name_full 'Zh.Strukt.Khim.(Russ.)(J.Struct.Chem.) '
loop_
_publ_author_name
"S.Pokhrel"
"K.S.Nagaraja"
"B.Varghese"
_chemical_name_systematic
;
Ammonium 1-aza-4-azoniabicyclo(2.2.2)octane tetrathiomolybdate(vi)
;
_cell_volume   1325.273
_exptl_crystal_colour 'red'
_exptl_crystal_density_diffrn 1.781
_exptl_crystal_description 'prism'
_exptl_crystal_preparation 'water'
_diffrn_ambient_temperature 295
#These two values have been output from a single CSD field.
_refine_ls_R_factor_gt 0.0154
_refine_ls_wR_factor_gt 0.0154
_symmetry_cell_setting cubic
_symmetry_space_group_name_H-M 'P 21 3'
_symmetry_Int_Tables_number 198
loop_
_symmetry_equiv_pos_site_id
_symmetry_equiv_pos_as_xyz
1 x,y,z
2 1/2-x,-y,1/2+z
3 1/2+x,1/2-y,-z
4 z,x,y
5 -x,1/2+y,1/2-z
6 1/2-z,-x,1/2+y
7 1/2+z,1/2-x,-y
8 -z,1/2+x,1/2-y
9 y,z,x
10 1/2+y,1/2-z,-x
11 -y,1/2+z,1/2-x
12 1/2-y,-z,1/2+x
_cell_length_a 10.9842(9)
_cell_length_b 10.9842(9)
_cell_length_c 10.9842(9)
_cell_angle_alpha 90
_cell_angle_beta 90
_cell_angle_gamma 90
_cell_formula_units_Z 4
loop_
_atom_type_symbol
_atom_type_radius_bond
C 0.68
Mo 1.47
N 0.68
S 1.02
loop_
_atom_site_label
_atom_site_type_symbol
_atom_site_fract_x
_atom_site_fract_y
_atom_site_fract_z
C1 C 0.4825(2) 0.1590(3) 0.8164(3)
C2 C 0.4045(3) 0.2409(2) 0.7364(2)
N1 N 0.4070(2) 0.0930(2) 0.9070(2)
N2 N 0.2750(2) 0.2250(2) 0.7750(2)
N3 N 0.5612(2) -0.0612(2) 1.0612(2)
S1 S 0.4639(1) -0.0361(1) 0.5361(1)
S2 S 0.4693(1) 0.1642(1) 0.2792(1)
Mo1 Mo 0.5783(1) 0.0783(1) 0.4217(1)
C1K C 0.3410(2) 0.1836(3) 0.9825(3)
C1F C 0.3164(2) 0.0175(3) 0.8410(3)
C2K C 0.2591(3) 0.2636(2) 0.9045(2)
C2F C 0.2364(3) 0.0955(2) 0.7591(2)
S2I S 0.6642(1) 0.2208(1) 0.5307(1)
S2G S 0.7208(1) -0.0307(1) 0.3358(1)
#END

data_CSD_CIF_NAUACE01
_audit_creation_date 1986-09-02
_audit_creation_method CSD-ConQuest-V1
_database_code_CSD NAUACE01
_database_code_depnum_ccdc_archive 'CCDC 1217341'
_chemical_formula_sum 'C6 H9 Na1 O8 U1'
_chemical_formula_moiety
;
C6 H9 O8 U1 1-,Na1 1+
;
_journal_coeditor_code "IUCr A25022"
_journal_coden_Cambridge 591
_journal_volume 41
_journal_year 1985
_journal_page_first 1439
_journal_name_full 'Acta Crystallogr.,Sect.C:Cryst.Struct.Commun. '
loop_
_publ_author_name
"D.H.Templeton"
"A.Zalkin"
"H.Ruben"
"L.K.Templeton"
_chemical_name_systematic
;
Sodium tris(acetato)-dioxo-uranium(vi)
;
_cell_volume   1221.269
_exptl_crystal_density_diffrn 2.557
_exptl_special_details
;
Absolute configuration

;
_diffrn_ambient_temperature ?
_diffrn_special_details
;
The study was carried out at room temperature,in the range 283-303K

;
#These two values have been output from a single CSD field.
_refine_ls_R_factor_gt 0.021
_refine_ls_wR_factor_gt 0.021
_symmetry_cell_setting cubic
_symmetry_space_group_name_H-M 'P 21 3'
_symmetry_Int_Tables_number 198
loop_
_symmetry_equiv_pos_site_id
_symmetry_equiv_pos_as_xyz
1 x,y,z
2 z,x,y
3 y,z,x
4 1/2+x,1/2-y,-z
5 1/2+z,1/2-x,-y
6 1/2+y,1/2-z,-x
7 -x,1/2+y,1/2-z
8 -z,1/2+x,1/2-y
9 -y,1/2+z,1/2-x
10 1/2-x,-y,1/2+z
11 1/2-z,-x,1/2+y
12 1/2-y,-z,1/2+x
_cell_length_a 10.689(2)
_cell_length_b 10.689(2)
_cell_length_c 10.689(2)
_cell_angle_alpha 90
_cell_angle_beta 90
_cell_angle_gamma 90
_cell_formula_units_Z 4
loop_
_atom_type_symbol
_atom_type_radius_bond
C 0.68
H 0.23
Na 0.97
O 0.68
U 1.47
loop_
_atom_site_label
_atom_site_type_symbol
_atom_site_fract_x
_atom_site_fract_y
_atom_site_fract_z
U1 U 0.42935(1) 0.42935 0.42935
O1 O 0.3343(2) 0.33430 0.33430
O2 O 0.5242(2) 0.52420 0.52420
O3 O 0.3834(2) 0.2945(2) 0.6110(2)
O4 O 0.5464(2) 0.2443(2) 0.5007(2)
C1 C 0.4786(4) 0.2260(3) 0.5950(3)
C2 C 0.5088(6) 0.1240(6) 0.6862(6)
H1 H 0.508(6) 0.042(3) 0.651(5)
H2 H 0.448(4) 0.119(5) 0.746(4)
H3 H 0.592(3) 0.143(5) 0.707(5)
Na1 Na 0.82865(12) 0.82865 0.82865
O3A O 0.6110(2) 0.3834(2) 0.2945(2)
O3B O 0.2945(2) 0.6110(2) 0.3834(2)
O4A O 0.5007(2) 0.5464(2) 0.2443(2)
O4B O 0.2443(2) 0.5007(2) 0.5464(2)
C1A C 0.5950(4) 0.4786(3) 0.2260(3)
C1B C 0.2260(4) 0.5950(3) 0.4786(3)
C2A C 0.6862(6) 0.5088(6) 0.1240(6)
C2B C 0.1240(6) 0.6862(6) 0.5088(6)
H1A H 0.651(6) 0.508(3) 0.042(5)
H2A H 0.746(4) 0.448(5) 0.119(4)
H3A H 0.707(3) 0.592(5) 0.143(5)
H1B H 0.042(6) 0.651(3) 0.508(5)
H2B H 0.119(4) 0.746(5) 0.448(4)
H3B H 0.143(3) 0.707(5) 0.592(5)
#END

data_CSD_CIF_NAUACE03
_audit_creation_date 2020-07-06
_audit_creation_method CSD-ConQuest-V1
_database_code_CSD NAUACE03
_database_code_depnum_ccdc_archive 'CCDC 1979201'
_chemical_formula_sum 'C6 H9 Na1 O8 U1'
_chemical_formula_moiety
;
C6 H9 O8 U1 1-,Na1 1+
;
_journal_coden_Cambridge 643
_journal_volume 235
_journal_year 2020
_journal_page_first 95
_journal_name_full 'Z.Krist.Cryst.Mater. '
loop_
_publ_author_name
"I.V.Kornyakov"
"S.A.Kalashnikova"
"V.V.Gurzhiy"
"S.N.Britvin"
"E.V.Belova"
"S.V.Krivovichev"
_chemical_name_systematic
;
sodium tris(acetato)-dioxo-uranium
;
_cell_volume   1232.270
_exptl_crystal_colour 'yellow'
_exptl_crystal_density_diffrn 2.534
_exptl_crystal_description 'block'
_diffrn_ambient_temperature 296
_diffrn_special_details
;
twin

;
#These two values have been output from a single CSD field.
_refine_ls_R_factor_gt 0.0401
_refine_ls_wR_factor_gt 0.0401
_symmetry_cell_setting cubic
_symmetry_space_group_name_H-M 'P 21 3'
_symmetry_Int_Tables_number 198
loop_
_symmetry_equiv_pos_site_id
_symmetry_equiv_pos_as_xyz
1 x,y,z
2 1/2-x,-y,1/2+z
3 -x,1/2+y,1/2-z
4 1/2+x,1/2-y,-z
5 z,x,y
6 1/2+z,1/2-x,-y
7 1/2-z,-x,1/2+y
8 -z,1/2+x,1/2-y
9 y,z,x
10 -y,1/2+z,1/2-x
11 1/2+y,1/2-z,-x
12 1/2-y,-z,1/2+x
_cell_length_a 10.721(6)
_cell_length_b 10.721(6)
_cell_length_c 10.721(6)
_cell_angle_alpha 90
_cell_angle_beta 90
_cell_angle_gamma 90
_cell_formula_units_Z 4
loop_
_atom_type_symbol
_atom_type_radius_bond
C 0.68
H 0.23
Na 1.66
O 0.68
U 1.96
loop_
_atom_site_label
_atom_site_type_symbol
_atom_site_fract_x
_atom_site_fract_y
_atom_site_fract_z
U1 U 0.31897(4) 0.81897(4) 0.68103(4)
O1 O 0.2249(10) 0.7249(10) 0.7751(10)
O2 O 0.4115(11) 0.9115(11) 0.5885(11)
O3 O 0.3644(10) 0.6381(10) 0.5454(11)
O4 O 0.2016(10) 0.7508(10) 0.4964(10)
C1 C 0.2676(17) 0.6538(14) 0.4788(16)
C2 C 0.239(2) 0.566(2) 0.374(2)
H1 H 0.20280 0.49090 0.40640
H2 H 0.31500 0.54570 0.33040
H3 H 0.18190 0.60460 0.31690
Na1 Na 0.5765(5) 0.5765(5) 0.5765(5)
O3G O 0.4546(10) 0.8644(10) 0.8619(11)
O4G O 0.5036(10) 0.7016(10) 0.7492(10)
C1G C 0.5212(17) 0.7676(14) 0.8462(16)
C2G C 0.626(2) 0.739(2) 0.934(2)
H1G H 0.59360 0.70280 1.00910
H2G H 0.66960 0.81500 0.95430
H3G H 0.68310 0.68190 0.89540
O3J O 0.1381(10) 0.9546(10) 0.6356(11)
O4J O 0.2508(10) 1.0036(10) 0.7984(10)
C1J C 0.1538(17) 1.0212(14) 0.7324(16)
C2J C 0.066(2) 1.126(2) 0.761(2)
H1J H -0.00910 1.09360 0.79720
H2J H 0.04570 1.16960 0.68500
H3J H 0.10460 1.18310 0.81810
#END

data_CSD_CIF_NEZNUC
_audit_creation_date 2007-06-20
_audit_creation_method CSD-ConQuest-V1
_database_code_CSD NEZNUC
_database_code_depnum_ccdc_archive 'CCDC 608016'
_chemical_formula_sum 'C6 H6 Eu1 F18 N3 O15 S6'
_chemical_formula_moiety
;
C6 H6 Eu1 F18 N3 O15 S6
;
_journal_coden_Cambridge 155
_journal_volume 360
_journal_year 2007
_journal_page_first 2162
_journal_name_full 'Inorg.Chim.Acta '
loop_
_publ_author_name
"M.Kawamura"
"S.Shimada"
_chemical_name_systematic
;
triaqua-tris(bis(trifluoromethanesulfonyl)amido-O,O')-europium(iii)
;
_cell_volume   6301.077
_exptl_crystal_colour 'colorless'
_exptl_crystal_density_diffrn 2.206
_exptl_special_details
;
highly hygroscopic

;
_exptl_crystal_description 'prismatic'
_diffrn_ambient_temperature 153
#These two values have been output from a single CSD field.
_refine_ls_R_factor_gt 0.019
_refine_ls_wR_factor_gt 0.019
_symmetry_cell_setting cubic
_symmetry_space_group_name_H-M 'P 21 3'
_symmetry_Int_Tables_number 198
loop_
_symmetry_equiv_pos_site_id
_symmetry_equiv_pos_as_xyz
1 x,y,z
2 y,z,x
3 z,x,y
4 1/2+x,1/2-y,-z
5 1/2+y,1/2-z,-x
6 1/2+z,1/2-x,-y
7 -y,1/2+z,1/2-x
8 -z,1/2+x,1/2-y
9 1/2-z,-x,1/2+y
10 1/2-x,-y,1/2+z
11 1/2-y,-z,1/2+x
12 -x,1/2+y,1/2-z
_cell_length_a 18.4702(5)
_cell_length_b 18.4702(5)
_cell_length_c 18.4702(5)
_cell_angle_alpha 90
_cell_angle_beta 90
_cell_angle_gamma 90
_cell_formula_units_Z 8
loop_
_atom_type_symbol
_atom_type_radius_bond
C 0.68
H 0.23
Eu 1.99
F 0.64
N 0.68
O 0.68
S 1.02
loop_
_atom_site_label
_atom_site_type_symbol
_atom_site_fract_x
_atom_site_fract_y
_atom_site_fract_z
Eu1 Eu 0.22895(1) 0.22895(1) 0.22895(1)
Eu2 Eu 0.48378(1) 0.48378(1) 0.48378(1)
S1 S 0.24186(5) 0.05500(5) 0.33562(5)
S2 S 0.25408(5) 0.03210(4) 0.18804(5)
S3 S 0.45543(5) 0.28785(5) 0.46067(5)
S4 S 0.60007(5) 0.31933(5) 0.48243(6)
F1 F 0.37704(12) 0.08664(14) 0.36200(16)
F2 F 0.34220(12) -0.01430(13) 0.40665(13)
F3 F 0.30650(17) 0.08494(18) 0.45449(14)
F4 F 0.14570(16) 0.00401(18) 0.10313(14)
F5 F 0.17370(14) -0.08250(12) 0.17515(18)
F6 F 0.11791(12) 0.01102(13) 0.21575(14)
F7 F 0.72083(18) 0.33688(19) 0.4160(2)
F8 F 0.67812(19) 0.22864(19) 0.4095(2)
F9 F 0.6317(2) 0.3129(2) 0.3461(2)
F10 F 0.4359(2) 0.24315(19) 0.59163(16)
F11 F 0.43363(19) 0.15892(13) 0.5115(2)
F12 F 0.34411(19) 0.23288(18) 0.5218(2)
O1 O 0.22882(14) 0.13076(12) 0.32187(12)
O2 O 0.18844(13) 0.01725(16) 0.37645(14)
O3 O 0.23959(13) 0.10819(12) 0.17595(12)
O4 O 0.30481(14) -0.00140(13) 0.14095(14)
O5 O 0.35052(13) 0.22253(16) 0.27116(17)
O6 O 0.58374(13) 0.39479(12) 0.47183(14)
O7 O 0.6386(2) 0.3006(2) 0.5457(2)
O8 O 0.43790(12) 0.35926(12) 0.48761(14)
O9 O 0.4245(2) 0.26708(19) 0.39407(16)
O10 O 0.53928(16) 0.47164(18) 0.59917(16)
N1 N 0.26959(16) 0.01145(14) 0.26838(16)
N2 N 0.5359(2) 0.2679(2) 0.4675(3)
C1 C 0.3227(2) 0.0527(2) 0.3934(2)
C2 C 0.1670(2) -0.0121(2) 0.1687(2)
C3 C 0.6617(2) 0.2977(2) 0.4076(3)
C4 C 0.4148(2) 0.2266(2) 0.5265(2)
H1 H 0.363(2) 0.233(2) 0.307(2)
H2 H 0.381(2) 0.198(2) 0.248(2)
H3 H 0.528(2) 0.448(2) 0.621(2)
H4 H 0.583(3) 0.475(2) 0.604(2)
S1A S 0.05500(5) 0.33562(5) 0.24186(5)
S1B S 0.33562(5) 0.24186(5) 0.05500(5)
S2A S 0.03210(5) 0.18804(4) 0.25408(5)
S2B S 0.18804(5) 0.25408(4) 0.03210(5)
S3A S 0.28785(5) 0.46067(5) 0.45543(5)
S3B S 0.46067(5) 0.45543(5) 0.28785(5)
S4A S 0.31933(5) 0.48243(5) 0.60007(6)
S4B S 0.48243(5) 0.60007(5) 0.31933(6)
F1B F 0.36200(12) 0.37704(14) 0.08664(16)
F1A F 0.08664(12) 0.36200(14) 0.37704(16)
F2B F 0.40665(12) 0.34220(13) -0.01430(13)
F2A F -0.01430(12) 0.40665(13) 0.34220(13)
F3B F 0.45449(17) 0.30650(18) 0.08494(14)
F3A F 0.08494(17) 0.45449(18) 0.30650(14)
F4B F 0.10313(16) 0.14570(18) 0.00401(14)
F4A F 0.00401(16) 0.10313(18) 0.14570(14)
F5B F 0.17515(14) 0.17370(12) -0.08250(18)
F5A F -0.08250(14) 0.17515(12) 0.17370(18)
F6B F 0.21575(12) 0.11791(13) 0.01102(14)
F6A F 0.01102(12) 0.21575(13) 0.11791(14)
F7B F 0.41600(18) 0.72083(19) 0.33688(20)
F7A F 0.33688(18) 0.41600(19) 0.72083(20)
F8B F 0.40950(19) 0.67812(19) 0.22864(20)
F8A F 0.22864(19) 0.40950(19) 0.67812(20)
F9B F 0.3461(2) 0.6317(2) 0.3129(2)
F9A F 0.3129(2) 0.3461(2) 0.6317(2)
F10B F 0.59163(20) 0.43590(19) 0.24315(16)
F10A F 0.24315(20) 0.59163(19) 0.43590(16)
F11B F 0.51150(19) 0.43363(13) 0.15892(20)
F11A F 0.15892(19) 0.51150(13) 0.43363(20)
F12B F 0.52180(19) 0.34411(18) 0.23288(20)
F12A F 0.23288(19) 0.52180(18) 0.34411(20)
O1A O 0.13076(14) 0.32187(12) 0.22882(12)
O1B O 0.32187(14) 0.22882(12) 0.13076(12)
O2A O 0.01725(13) 0.37645(16) 0.18844(14)
O2B O 0.37645(13) 0.18844(16) 0.01725(14)
O3A O 0.10819(13) 0.17595(12) 0.23959(12)
O3B O 0.17595(13) 0.23959(12) 0.10819(12)
O4B O 0.14095(14) 0.30481(13) -0.00140(14)
O4A O -0.00140(14) 0.14095(13) 0.30481(14)
O5A O 0.22253(13) 0.27116(16) 0.35052(17)
O5B O 0.27116(13) 0.35052(16) 0.22253(17)
O6A O 0.39479(13) 0.47183(12) 0.58374(14)
O6B O 0.47183(13) 0.58374(12) 0.39479(14)
O7A O 0.3006(2) 0.5457(2) 0.6386(2)
O7B O 0.5457(2) 0.6386(2) 0.3006(2)
O8A O 0.35926(12) 0.48761(12) 0.43790(14)
O8B O 0.48761(12) 0.43790(12) 0.35926(14)
O9B O 0.39407(20) 0.42450(19) 0.26708(16)
O9A O 0.26708(20) 0.39407(19) 0.42450(16)
O10A O 0.47164(16) 0.59917(18) 0.53928(16)
O10B O 0.59917(16) 0.53928(18) 0.47164(16)
N1A N 0.01145(16) 0.26838(14) 0.26959(16)
N1B N 0.26838(16) 0.26959(14) 0.01145(16)
N2A N 0.2679(2) 0.4675(2) 0.5359(3)
N2B N 0.4675(2) 0.5359(2) 0.2679(3)
C1B C 0.3934(2) 0.3227(2) 0.0527(2)
C1A C 0.0527(2) 0.3934(2) 0.3227(2)
C2B C 0.1687(2) 0.1670(2) -0.0121(2)
C2A C -0.0121(2) 0.1687(2) 0.1670(2)
C3B C 0.4076(2) 0.6617(2) 0.2977(3)
C3A C 0.2977(2) 0.4076(2) 0.6617(3)
C4B C 0.5265(2) 0.4148(2) 0.2266(2)
C4A C 0.2266(2) 0.5265(2) 0.4148(2)
H1A H 0.233(2) 0.307(2) 0.363(2)
H1B H 0.307(2) 0.363(2) 0.233(2)
H2A H 0.198(2) 0.248(2) 0.381(2)
H2B H 0.248(2) 0.381(2) 0.198(2)
H3A H 0.448(2) 0.621(2) 0.528(2)
H3B H 0.621(2) 0.528(2) 0.448(2)
H4A H 0.475(3) 0.604(2) 0.583(2)
H4B H 0.604(3) 0.583(2) 0.475(2)
#END

data_CSD_CIF_NOPTUJ
_audit_creation_date 2014-07-17
_audit_creation_method CSD-ConQuest-V1
_database_code_CSD NOPTUJ
_database_code_depnum_ccdc_archive 'CCDC 993194'
_chemical_formula_sum 'C9 H13 N1 O8 U1'
_chemical_formula_moiety
;
C9 H9 O8 U1 1-,H4 N1 1+
;
_journal_coden_Cambridge 1295
_journal_volume 46
_journal_year 2014
_journal_page_first 5
_journal_name_full 'Inorg.Chem.Commun. '
loop_
_publ_author_name
"V.V.Klepov"
"L.B.Serezhkina"
"A.V.Vologzhanina"
"D.V.Pushkin"
"O.A.Sergeeva"
"S.Yu.Stefanovich"
"V.N.Serezhkin"
_chemical_name_systematic
;
ammonium tris(acrylato)-dioxo-uranium
;
_cell_volume   1541.159
_exptl_crystal_colour 'yellow'
_exptl_crystal_density_diffrn 2.16
_exptl_crystal_description 'prism'
_exptl_crystal_preparation 'water'
_diffrn_ambient_temperature 100
#These two values have been output from a single CSD field.
_refine_ls_R_factor_gt 0.0306
_refine_ls_wR_factor_gt 0.0306
_symmetry_cell_setting cubic
_symmetry_space_group_name_H-M 'P 21 3'
_symmetry_Int_Tables_number 198
loop_
_symmetry_equiv_pos_site_id
_symmetry_equiv_pos_as_xyz
1 x,y,z
2 1/2-x,-y,1/2+z
3 -x,1/2+y,1/2-z
4 1/2+x,1/2-y,-z
5 z,x,y
6 1/2+z,1/2-x,-y
7 1/2-z,-x,1/2+y
8 -z,1/2+x,1/2-y
9 y,z,x
10 -y,1/2+z,1/2-x
11 1/2+y,1/2-z,-x
12 1/2-y,-z,1/2+x
_cell_length_a 11.5509(6)
_cell_length_b 11.5509(6)
_cell_length_c 11.5509(6)
_cell_angle_alpha 90
_cell_angle_beta 90
_cell_angle_gamma 90
_cell_formula_units_Z 4
loop_
_atom_type_symbol
_atom_type_radius_bond
C 0.68
H 0.23
N 0.68
O 0.68
U 1.96
loop_
_atom_site_label
_atom_site_type_symbol
_atom_site_fract_x
_atom_site_fract_y
_atom_site_fract_z
U1 U -1.20794(3) 0.20794(3) -0.29206(3)
O1 O -1.2944(5) 0.2944(5) -0.2056(5)
O2 O -1.1203(5) 0.1203(5) -0.3797(5)
O3 O -1.2781(5) 0.0332(5) -0.1953(5)
O4 O -1.3762(6) 0.0876(5) -0.3473(6)
C1 C -1.3605(9) 0.0153(8) -0.2672(8)
C2 C -1.4377(10) -0.0844(11) -0.2521(11)
H1 H -1.49590 -0.09720 -0.30880
C3 C -1.4315(10) -0.1558(11) -0.1663(11)
H2 H -1.37430 -0.14530 -0.10820
H3 H -1.48410 -0.21880 -0.16140
N1 N -1.0970(8) -0.0970(8) -0.0970(8)
H4 H -1.15030 -0.04690 -0.12230
H5 H -1.05260 -0.05260 -0.05260
O3F O -1.3047(5) 0.2781(5) -0.4668(5)
O4F O -1.1527(6) 0.3762(5) -0.4124(6)
C1F C -1.2328(9) 0.3605(8) -0.4847(8)
C2F C -1.2479(10) 0.4377(11) -0.5844(11)
H1F H -1.19120 0.49590 -0.59720
C3F C -1.3337(10) 0.4315(11) -0.6558(11)
H2F H -1.39180 0.37430 -0.64530
H3F H -1.33860 0.48410 -0.71880
O3I O -1.0332(5) 0.3047(5) -0.2219(5)
O4I O -1.0876(6) 0.1527(5) -0.1238(6)
C1I C -1.0153(9) 0.2328(8) -0.1395(8)
C2I C -0.9156(10) 0.2479(11) -0.0623(11)
H1I H -0.90280 0.19120 -0.00410
C3I C -0.8442(10) 0.3337(11) -0.0685(11)
H2I H -0.85470 0.39180 -0.12570
H3I H -0.78120 0.33860 -0.01590
H4D H -1.12230 -0.15030 -0.04690
H4H H -1.04690 -0.12230 -0.15030
#END

data_CSD_CIF_NOWSUP
_audit_creation_date 2014-12-15
_audit_creation_method CSD-ConQuest-V1
_database_code_CSD NOWSUP
_database_code_depnum_ccdc_archive 'CCDC 1039265'
_chemical_formula_sum 'C18 H48 Cu1 I2 N6 O3'
_chemical_formula_moiety
;
C18 H42 Cu1 N6 2+,3(H2 O1),2(I1 1-)
;
_journal_coden_Cambridge 1078
_journal_year 2014
_journal_name_full 'CSD Communication(Private Communication) '
loop_
_publ_author_name
"dapeng dong"
_chemical_name_systematic
;
tris(Cyclohexane-1,2-diamine)-copper(ii) bis(iodide) trihydrate
;
_cell_volume   2846.805
_exptl_crystal_colour 'blue'
_exptl_crystal_density_diffrn 1.666
_exptl_crystal_description 'block'
_diffrn_ambient_temperature 296
#These two values have been output from a single CSD field.
_refine_ls_R_factor_gt 0.0164
_refine_ls_wR_factor_gt 0.0164
_symmetry_cell_setting cubic
_symmetry_space_group_name_H-M 'P 21 3'
_symmetry_Int_Tables_number 198
loop_
_symmetry_equiv_pos_site_id
_symmetry_equiv_pos_as_xyz
1 x,y,z
2 1/2-x,-y,1/2+z
3 -x,1/2+y,1/2-z
4 1/2+x,1/2-y,-z
5 z,x,y
6 1/2+z,1/2-x,-y
7 1/2-z,-x,1/2+y
8 -z,1/2+x,1/2-y
9 y,z,x
10 -y,1/2+z,1/2-x
11 1/2+y,1/2-z,-x
12 1/2-y,-z,1/2+x
_cell_length_a 14.1727(4)
_cell_length_b 14.1727(4)
_cell_length_c 14.1727(4)
_cell_angle_alpha 90
_cell_angle_beta 90
_cell_angle_gamma 90
_cell_formula_units_Z 4
loop_
_atom_type_symbol
_atom_type_radius_bond
C 0.68
H 0.23
Cu 1.32
I 1.40
N 0.68
O 0.68
loop_
_atom_site_label
_atom_site_type_symbol
_atom_site_fract_x
_atom_site_fract_y
_atom_site_fract_z
I1 I 0.125538(12) 0.874462(12) 0.374462(12)
I2 I -0.302533(10) 0.802533(10) 0.197467(10)
Cu1 Cu 0.382709(16) 0.882709(16) 0.617291(16)
N1 N 0.47264(15) 0.82325(14) 0.50948(15)
H1 H 0.46150 0.87360 0.47240
H2 H 0.53240 0.83250 0.50410
N2 N 0.29202(15) 0.77277(15) 0.56420(13)
H3 H 0.28080 0.80740 0.51210
H4 H 0.23230 0.76870 0.57440
C1 C 0.41447(18) 0.76344(16) 0.44621(15)
H5 H 0.37670 0.80500 0.40590
C2 C 0.4743(2) 0.7000(2) 0.38271(19)
H6 H 0.51260 0.73870 0.34120
H7 H 0.51640 0.66220 0.42130
C3 C 0.34783(16) 0.70630(16) 0.50698(16)
H8 H 0.38580 0.66770 0.55000
C4 C 0.2873(2) 0.6401(2) 0.4476(2)
H9 H 0.24910 0.60100 0.48880
H10 H 0.24510 0.67700 0.40830
C5 C 0.3483(3) 0.5773(2) 0.3852(3)
H11 H 0.38610 0.53580 0.42450
H12 H 0.30820 0.53830 0.34570
C6 C 0.4120(3) 0.6356(3) 0.3241(2)
H13 H 0.37410 0.67340 0.28150
H14 H 0.45130 0.59420 0.28640
O1 O 0.4608(2) 1.12114(18) 0.4145(2)
H15 H 0.500(3) 1.146(3) 0.452(3)
H16 H 0.425(3) 1.164(2) 0.394(3)
N1G N 0.49052(15) 0.97264(14) 0.67675(15)
H1G H 0.52760 0.96150 0.62640
H2G H 0.49590 1.03240 0.66750
N2G N 0.43580(15) 0.79202(15) 0.72723(13)
H3G H 0.48790 0.78080 0.69260
H4G H 0.42560 0.73230 0.73130
C1G C 0.55379(18) 0.91447(16) 0.73656(15)
H5G H 0.59410 0.87670 0.69500
C2G C 0.61729(20) 0.9743(2) 0.80000(19)
H6G H 0.65880 1.01260 0.76130
H7G H 0.57870 1.01640 0.83780
C3G C 0.49302(16) 0.84783(16) 0.79370(16)
H8G H 0.45000 0.88580 0.83230
C4G C 0.5524(2) 0.7873(2) 0.8599(2)
H9G H 0.51120 0.74910 0.89900
H10G H 0.59170 0.74510 0.82300
C5G C 0.6148(3) 0.8483(2) 0.9227(3)
H11G H 0.57550 0.88610 0.96420
H12G H 0.65430 0.80820 0.96170
C6G C 0.6759(3) 0.9120(3) 0.8644(2)
H13G H 0.71850 0.87410 0.82660
H14G H 0.71360 0.95130 0.90580
N1J N 0.32325(15) 0.99052(14) 0.52736(15)
H1J H 0.37360 1.02760 0.53850
H2J H 0.33250 0.99590 0.46760
N2J N 0.27277(15) 0.93580(15) 0.70798(13)
H3J H 0.30740 0.98790 0.71920
H4J H 0.26870 0.92560 0.76770
C1J C 0.26344(18) 1.05379(16) 0.58553(15)
H5J H 0.30500 1.09410 0.62330
C2J C 0.2000(2) 1.11729(20) 0.52570(19)
H6J H 0.23870 1.15880 0.48740
H7J H 0.16220 1.07870 0.48360
C3J C 0.20630(16) 0.99302(16) 0.65217(16)
H8J H 0.16770 0.95000 0.61420
C4J C 0.1401(2) 1.0524(2) 0.7127(2)
H9J H 0.10100 1.01120 0.75090
H10J H 0.17700 1.09170 0.75490
C5J C 0.0773(3) 1.1148(2) 0.6517(3)
H11J H 0.03580 1.07550 0.61390
H12J H 0.03830 1.15430 0.69180
C6J C 0.1356(3) 1.1759(3) 0.5880(2)
H13J H 0.17340 1.21850 0.62590
H14J H 0.09420 1.21360 0.54870
#END

data_CSD_CIF_OBENIT
_audit_creation_date 2004-12-15
_audit_creation_method CSD-ConQuest-V1
_database_code_CSD OBENIT
_database_code_depnum_ccdc_archive 'CCDC 247250'
_chemical_formula_sum 'C9 H20 N2 O9 Ti1'
_chemical_formula_moiety
;
2(H4 N1 1+),C9 H12 O9 Ti1 2-
;
_journal_coden_Cambridge 9
_journal_volume 43
_journal_year 2004
_journal_page_first 4546
_journal_name_full 'Inorg.Chem. '
loop_
_publ_author_name
"M.Kakihana"
"K.Tomita"
"V.Petrykin"
"M.Tada"
"S.Sasaki"
"Y.Nakamura"
_chemical_name_systematic
;
Diammonium tris(2-hydroxypropionato)-titanium(iv)
;
_cell_volume   1580.760
_exptl_crystal_colour 'white'
_exptl_crystal_density_diffrn 1.463
_exptl_crystal_description 'sphere'
_diffrn_ambient_temperature 293
#These two values have been output from a single CSD field.
_refine_ls_R_factor_gt 0.0343
_refine_ls_wR_factor_gt 0.0343
_symmetry_cell_setting cubic
_symmetry_space_group_name_H-M 'P 21 3'
_symmetry_Int_Tables_number 198
loop_
_symmetry_equiv_pos_site_id
_symmetry_equiv_pos_as_xyz
1 x,y,z
2 y,z,x
3 z,x,y
4 1/2+x,1/2-y,-z
5 1/2+y,1/2-z,-x
6 1/2+z,1/2-x,-y
7 -y,1/2+z,1/2-x
8 -z,1/2+x,1/2-y
9 1/2-z,-x,1/2+y
10 1/2-x,-y,1/2+z
11 1/2-y,-z,1/2+x
12 -x,1/2+y,1/2-z
_cell_length_a 11.649(4)
_cell_length_b 11.649(4)
_cell_length_c 11.649(4)
_cell_angle_alpha 90
_cell_angle_beta 90
_cell_angle_gamma 90
_cell_formula_units_Z 4
loop_
_atom_type_symbol
_atom_type_radius_bond
C 0.68
H 0.23
N 0.68
O 0.68
Ti 1.47
loop_
_atom_site_label
_atom_site_type_symbol
_atom_site_fract_x
_atom_site_fract_y
_atom_site_fract_z
Ti1 Ti -0.08295(11) -0.08295(11) -0.08295(11)
O1 O -0.1884(4) -0.1835(4) -0.0203(4)
C1 C -0.1546(6) -0.2564(7) 0.0695(7)
C2 C -0.0454(6) -0.2095(6) 0.1237(7)
O2 O -0.0007(4) -0.1248(4) 0.0690(4)
O3 O -0.0047(5) -0.2524(5) 0.2121(4)
C3 C -0.1375(7) -0.3788(7) 0.0258(7)
N1 N -0.2664(5) -0.2664(5) -0.2664(5)
N2 N -0.3852(5) 0.3852(5) -0.1148(5)
H1 H -0.21560 -0.25730 0.13050
H2 H -0.11360 -0.42950 0.08910
H3 H -0.21240 -0.40720 -0.00780
H4 H -0.07800 -0.38040 -0.03730
H5 H -0.33120 0.42040 -0.18380
H6 H -0.44050 0.44050 -0.05950
H7 H -0.22490 -0.22490 -0.22490
H8 H -0.26780 -0.24810 -0.35780
O1A O -0.1835(4) -0.0203(4) -0.1884(4)
C1A C -0.2564(6) 0.0695(7) -0.1546(7)
C2A C -0.2095(6) 0.1237(6) -0.0454(7)
O2A O -0.1248(4) 0.0690(4) -0.0007(4)
O1B O -0.0203(4) -0.1884(4) -0.1835(4)
C1B C 0.0695(6) -0.1546(7) -0.2564(7)
C2B C 0.1237(6) -0.0454(6) -0.2095(7)
O2B O 0.0690(4) -0.0007(4) -0.1248(4)
O3B O 0.2121(5) -0.0047(5) -0.2524(4)
C3B C 0.0258(7) -0.1375(7) -0.3788(7)
H2B H 0.08910 -0.11360 -0.42950
H3B H -0.00780 -0.21240 -0.40720
H4B H -0.03730 -0.07800 -0.38040
H1B H 0.13050 -0.21560 -0.25730
O3A O -0.2524(5) 0.2121(5) -0.0047(4)
C3A C -0.3788(7) 0.0258(7) -0.1375(7)
H2A H -0.42950 0.08910 -0.11360
H3A H -0.40720 -0.00780 -0.21240
H4A H -0.38040 -0.03730 -0.07800
H1A H -0.25730 0.13050 -0.21560
H8A H -0.24810 -0.35780 -0.26780
H8B H -0.35780 -0.26780 -0.24810
H5F H -0.42040 0.31620 -0.16880
H5H H -0.31620 0.33120 -0.07960
#END

data_CSD_CIF_OCEGUA
_audit_creation_date 2012-01-16
_audit_creation_method CSD-ConQuest-V1
_database_code_CSD OCEGUA
_database_code_depnum_ccdc_archive 'CCDC 858524'
_chemical_formula_sum 'C19 H36 I1 N3'
_chemical_formula_moiety
;
C19 H36 N3 1+,I1 1-
;
_journal_coeditor_code "IUCr BQ2321"
_journal_coden_Cambridge 1370
_journal_volume 67
_journal_year 2011
_journal_page_first o3467
_journal_name_full 'Acta Crystallogr.,Sect.E:Struct.Rep.Online '
loop_
_publ_author_name
"F.F.Said"
"B.F.Ali"
"D.Richeson"
_chemical_name_systematic
;
N-(bis(cyclohexylamino)methylene)cyclohexanaminium iodide
;
_chemical_name_common
;
N,N',N''-Tricyclohexylguanidinium iodide
;
_cell_volume   2143.196
_exptl_crystal_colour 'colorless'
_exptl_crystal_density_diffrn 1.343
_exptl_crystal_description 'block'
_diffrn_ambient_temperature 188
#These two values have been output from a single CSD field.
_refine_ls_R_factor_gt 0.0381
_refine_ls_wR_factor_gt 0.0381
_symmetry_cell_setting cubic
_symmetry_space_group_name_H-M 'P 21 3'
_symmetry_Int_Tables_number 198
loop_
_symmetry_equiv_pos_site_id
_symmetry_equiv_pos_as_xyz
1 x,y,z
2 1/2-x,-y,1/2+z
3 -x,1/2+y,1/2-z
4 1/2+x,1/2-y,-z
5 z,x,y
6 1/2+z,1/2-x,-y
7 1/2-z,-x,1/2+y
8 -z,1/2+x,1/2-y
9 y,z,x
10 -y,1/2+z,1/2-x
11 1/2+y,1/2-z,-x
12 1/2-y,-z,1/2+x
_cell_length_a 12.893(4)
_cell_length_b 12.893(4)
_cell_length_c 12.893(4)
_cell_angle_alpha 90
_cell_angle_beta 90
_cell_angle_gamma 90
_cell_formula_units_Z 4
loop_
_atom_type_symbol
_atom_type_radius_bond
C 0.68
H 0.23
I 1.40
N 0.68
loop_
_atom_site_label
_atom_site_type_symbol
_atom_site_fract_x
_atom_site_fract_y
_atom_site_fract_z
I1 I 0.89107(4) 0.89107(4) 0.89107(4)
N1 N 0.8894(5) 0.1398(4) 0.7489(4)
H1 H 0.88030 0.07810 0.77280
C1 C 0.8343(6) 0.1657(6) 0.6657(6)
C2 C 0.9631(6) 0.2045(6) 0.8033(6)
H2 H 0.98120 0.26360 0.75910
C3 C 0.9164(6) 0.2440(8) 0.9017(8)
H3 H 0.89510 0.18610 0.94480
H4 H 0.85560 0.28550 0.88620
C4 C 0.9957(9) 0.3091(9) 0.9588(11)
H5 H 1.01150 0.37010 0.91770
H6 H 0.96600 0.33230 1.02390
C5 C 1.0919(7) 0.2525(9) 0.9799(7)
H7 H 1.07800 0.19670 1.02850
H8 H 1.14190 0.29900 1.01160
C6 C 1.1359(5) 0.2091(7) 0.8838(7)
H9 H 1.19570 0.16680 0.90090
H10 H 1.15930 0.26540 0.83970
C7 C 1.0581(6) 0.1441(7) 0.8255(7)
H11 H 1.08850 0.12060 0.76080
H12 H 1.04040 0.08350 0.86630
N1F N 0.7511(5) 0.1106(4) 0.6398(4)
N1I N 0.8602(5) 0.2489(4) 0.6106(4)
H1F H 0.72720 0.11970 0.57810
H1I H 0.92190 0.27280 0.61970
C2F C 0.6967(6) 0.0369(6) 0.7045(6)
C2I C 0.7955(6) 0.3033(6) 0.5369(6)
H2F H 0.74090 0.01880 0.76360
H2I H 0.73640 0.25910 0.51880
C3F C 0.5983(6) 0.0836(8) 0.7440(8)
C3I C 0.7560(6) 0.4017(8) 0.5836(8)
H3F H 0.55520 0.10490 0.68610
H3I H 0.81390 0.44480 0.60490
H4F H 0.61380 0.14440 0.78550
H4I H 0.71450 0.38620 0.64440
C4F C 0.5412(9) 0.0043(9) 0.8091(11)
C4I C 0.6909(9) 0.4588(9) 0.5043(11)
H5F H 0.58230 -0.01150 0.87010
H5I H 0.62990 0.41770 0.48850
H6F H 0.47610 0.03400 0.83230
H6I H 0.66770 0.52390 0.53400
C5F C 0.5201(7) -0.0919(9) 0.7525(7)
C5I C 0.7475(7) 0.4799(9) 0.4081(7)
H7F H 0.47150 -0.07800 0.69670
H7I H 0.80330 0.52850 0.42200
H8F H 0.48840 -0.14190 0.79900
H8I H 0.70100 0.51160 0.35810
C6F C 0.6162(5) -0.1359(7) 0.7091(7)
C6I C 0.7909(5) 0.3838(7) 0.3641(7)
H9F H 0.59910 -0.19570 0.66680
H9I H 0.83320 0.40090 0.30430
H10F H 0.66030 -0.15930 0.76540
H10I H 0.73460 0.33970 0.34070
C7F C 0.6745(6) -0.0581(7) 0.6441(7)
C7I C 0.8559(6) 0.3255(7) 0.4419(7)
H11F H 0.73920 -0.08850 0.62060
H11I H 0.87940 0.26080 0.41150
H12F H 0.63370 -0.04040 0.58350
H12I H 0.91650 0.36630 0.45960
#END

data_CSD_CIF_OJUGIL
_audit_creation_date 2016-04-07
_audit_creation_method CSD-ConQuest-V1
_database_code_CSD OJUGIL
_database_code_depnum_ccdc_archive 'CCDC 1457222'
_chemical_formula_sum 'C30 H36 F12 N18 P2 Ru1'
_chemical_formula_moiety
;
C30 H36 N18 Ru1 2+,2(F6 P1 1-)
;
_journal_coden_Cambridge 1078
_journal_year 2016
_journal_name_full 'CSD Communication(Private Communication) '
loop_
_publ_author_name
"J.K.Nagle"
"L.Webb"
"M.M.Olmstead"
_chemical_name_systematic
;
tris(5,5',6,6'-tetramethyl-3,3'-bi-1,2,4-triazine)-ruthenium 
bis(hexafluorophosphate)
;
_cell_volume   4542.543
_exptl_crystal_colour 'red'
_exptl_crystal_density_diffrn 1.52
_exptl_special_details
;
Absolute configuration

;
_exptl_crystal_description 'prism'
_diffrn_ambient_temperature 90
_diffrn_special_details
;
twin

;
#These two values have been output from a single CSD field.
_refine_ls_R_factor_gt 0.0417
_refine_ls_wR_factor_gt 0.0417
_symmetry_cell_setting cubic
_symmetry_space_group_name_H-M 'P 21 3'
_symmetry_Int_Tables_number 198
loop_
_symmetry_equiv_pos_site_id
_symmetry_equiv_pos_as_xyz
1 x,y,z
2 1/2-x,-y,1/2+z
3 -x,1/2+y,1/2-z
4 1/2+x,1/2-y,-z
5 z,x,y
6 1/2+z,1/2-x,-y
7 1/2-z,-x,1/2+y
8 -z,1/2+x,1/2-y
9 y,z,x
10 -y,1/2+z,1/2-x
11 1/2+y,1/2-z,-x
12 1/2-y,-z,1/2+x
_cell_length_a 16.5615(3)
_cell_length_b 16.5615(3)
_cell_length_c 16.5615(3)
_cell_angle_alpha 90
_cell_angle_beta 90
_cell_angle_gamma 90
_cell_formula_units_Z 4
loop_
_atom_type_symbol
_atom_type_radius_bond
C 0.68
H 0.23
F 0.64
N 0.68
P 1.05
Ru 1.46
loop_
_atom_site_label
_atom_site_type_symbol
_atom_site_fract_x
_atom_site_fract_y
_atom_site_fract_z
Ru1 Ru 0.63113(2) 0.13113(2) 0.36887(2)
N1 N 0.6750(3) 0.1352(3) 0.1937(2)
N2 N 0.6140(2) 0.1326(3) 0.24704(19)
N3 N 0.5143(3) 0.1319(3) 0.1447(2)
C1 C 0.5372(3) 0.1322(3) 0.2219(3)
C2 C 0.5734(4) 0.1347(4) 0.0905(3)
C3 C 0.6549(4) 0.1381(4) 0.1175(3)
C4 C 0.5542(6) 0.1347(6) 0.0030(3)
H1 H 0.49570 0.13900 -0.00430
H2 H 0.57350 0.08430 -0.02140
H3 H 0.58080 0.18060 -0.02300
C5 C 0.7253(5) 0.1363(6) 0.0574(4)
H4 H 0.76300 0.18020 0.06990
H5 H 0.70450 0.14330 0.00250
H6 H 0.75340 0.08440 0.06150
N4 N 0.4617(2) 0.1355(3) 0.4273(2)
N5 N 0.50929(18) 0.1346(2) 0.3623(2)
N6 N 0.3975(2) 0.1288(3) 0.2712(3)
C6 C 0.4768(3) 0.1314(3) 0.2873(3)
C7 C 0.3488(3) 0.1289(3) 0.3364(3)
C8 C 0.3827(3) 0.1331(3) 0.4164(3)
C9 C 0.2607(3) 0.1239(5) 0.3220(5)
H7 H 0.24960 0.13340 0.26460
H8 H 0.23300 0.16480 0.35450
H9 H 0.24120 0.07010 0.33720
C10 C 0.3324(4) 0.1367(5) 0.4910(4)
H10 H 0.36380 0.11670 0.53690
H11 H 0.28420 0.10320 0.48390
H12 H 0.31620 0.19270 0.50110
P1 P 0.88205(6) 0.11795(6) 0.61795(6)
F1 F 0.8222(4) 0.0837(4) 0.6837(3)
F2 F 0.9485(3) 0.0601(3) 0.6549(4)
P2 P 0.09586(16) 0.09586(16) 0.09586(16)
F3 F 0.0651(9) 0.1282(8) 0.1803(5)
F4 F 0.1241(8) 0.0653(7) 0.0090(5)
N1G N 0.8063(3) 0.1750(3) 0.3648(2)
N2G N 0.75296(20) 0.1140(3) 0.36740(19)
N3G N 0.8553(3) 0.0143(3) 0.3681(2)
C1G C 0.7781(3) 0.0372(3) 0.3678(3)
C2G C 0.9095(4) 0.0734(4) 0.3653(3)
C3G C 0.8825(4) 0.1549(4) 0.3619(3)
C4G C 0.9970(6) 0.0542(6) 0.3653(3)
H1G H 1.00430 -0.00430 0.36100
H2G H 1.02140 0.07350 0.41570
H3G H 1.02300 0.08080 0.31940
C5G C 0.9426(5) 0.2253(6) 0.3637(4)
H4G H 0.93010 0.26300 0.31980
H5G H 0.99750 0.20450 0.35670
H6G H 0.93850 0.25340 0.41560
N4G N 0.5727(2) -0.0383(3) 0.3645(2)
N5G N 0.63770(18) 0.00929(20) 0.3654(2)
N6G N 0.7288(2) -0.1025(3) 0.3712(3)
C6G C 0.7127(3) -0.0232(3) 0.3686(3)
C7G C 0.6636(3) -0.1512(3) 0.3711(3)
C8G C 0.5836(3) -0.1173(3) 0.3669(3)
C9G C 0.6780(3) -0.2393(5) 0.3761(5)
H7G H 0.73540 -0.25040 0.36660
H8G H 0.64550 -0.26700 0.33520
H9G H 0.66280 -0.25880 0.42990
C10G C 0.5090(4) -0.1676(5) 0.3633(4)
H10G H 0.46310 -0.13620 0.38330
H11G H 0.51610 -0.21580 0.39680
H12G H 0.49890 -0.18380 0.30730
N1J N 0.6352(3) 0.3063(3) 0.3250(2)
N2J N 0.6326(2) 0.25296(30) 0.38600(19)
N3J N 0.6319(3) 0.3553(3) 0.4857(2)
C1J C 0.6322(3) 0.2781(3) 0.4628(3)
C2J C 0.6347(4) 0.4095(4) 0.4266(3)
C3J C 0.6381(4) 0.3825(4) 0.3451(3)
C4J C 0.6347(6) 0.4970(6) 0.4458(3)
H1J H 0.63900 0.50430 0.50430
H2J H 0.58430 0.52140 0.42650
H3J H 0.68060 0.52300 0.41920
C5J C 0.6363(5) 0.4426(6) 0.2747(4)
H4J H 0.68020 0.43010 0.23700
H5J H 0.64330 0.49750 0.29550
H6J H 0.58440 0.43850 0.24660
N4J N 0.6355(2) 0.0727(3) 0.5383(2)
N5J N 0.63460(18) 0.1377(2) 0.49071(20)
N6J N 0.6288(2) 0.2288(3) 0.6025(3)
C6J C 0.6314(3) 0.2127(3) 0.5232(3)
C7J C 0.6289(3) 0.1636(3) 0.6512(3)
C8J C 0.6331(3) 0.0836(3) 0.6173(3)
C9J C 0.6239(3) 0.1780(5) 0.7393(5)
H7J H 0.63340 0.23540 0.75040
H8J H 0.66480 0.14550 0.76700
H9J H 0.57010 0.16280 0.75880
C10J C 0.6367(4) 0.0090(5) 0.6676(4)
H10J H 0.61670 -0.03690 0.63620
H11J H 0.60320 0.01610 0.71580
H12J H 0.69270 -0.00110 0.68380
F1F F 0.8163(4) 0.1778(4) 0.5837(3)
F2F F 0.8451(3) 0.0515(3) 0.5601(4)
F1I F 0.9163(4) 0.1837(4) 0.6778(3)
F2I F 0.9399(3) 0.1549(3) 0.5515(4)
F3D F 0.1803(9) 0.0651(8) 0.1282(5)
F4D F 0.0090(8) 0.1241(7) 0.0653(5)
F3H F 0.1282(9) 0.1803(8) 0.0651(5)
F4H F 0.0653(8) 0.0090(7) 0.1241(5)
#END

data_CSD_CIF_OKIPOP
_audit_creation_date 2016-04-11
_audit_creation_method CSD-ConQuest-V1
_database_code_CSD OKIPOP
_database_code_depnum_ccdc_archive 'CCDC 1455624'
_chemical_formula_sum 'C51 H60 B1 Cl3 F4 Mo3 N3 P3 S4'
_chemical_formula_moiety
;
C51 H60 Cl3 Mo3 N3 P3 S4 1+,B1 F4 1-
;
_journal_coden_Cambridge 222
_journal_volume 45
_journal_year 2016
_journal_page_first 7829
_journal_name_full 'Dalton Trans. '
loop_
_publ_author_name
"C.Alfonso"
"M.Feliz"
"V.S.Safont"
"R.Llusar"
_chemical_name_systematic
;
(P)-(S~N~,R~C~)-(\m~3~-Sulfido)-tris(\m~2~-sulfido)-trichloro-bis(2-((diphenyl
phosphino)methyl)pyrrolidine)-tri-molybdenum tetrafluoroborate
;
_cell_volume   6938.145
_exptl_crystal_colour 'green'
_exptl_crystal_density_diffrn 1.357
_diffrn_ambient_temperature 200
#These two values have been output from a single CSD field.
_refine_ls_R_factor_gt 0.0425
_refine_ls_wR_factor_gt 0.0425
_symmetry_cell_setting cubic
_symmetry_space_group_name_H-M 'P 21 3'
_symmetry_Int_Tables_number 198
loop_
_symmetry_equiv_pos_site_id
_symmetry_equiv_pos_as_xyz
1 x,y,z
2 z,x,y
3 y,z,x
4 1/2-y,-z,1/2+x
5 1/2+z,1/2-x,-y
6 -y,1/2+z,1/2-x
7 1/2-z,-x,1/2+y
8 -z,1/2+x,1/2-y
9 1/2+y,1/2-z,-x
10 1/2-x,-y,1/2+z
11 1/2+x,1/2-y,-z
12 -x,1/2+y,1/2-z
_cell_length_a 19.0728(2)
_cell_length_b 19.0728(2)
_cell_length_c 19.0728(2)
_cell_angle_alpha 90
_cell_angle_beta 90
_cell_angle_gamma 90
_cell_formula_units_Z 4
loop_
_atom_type_symbol
_atom_type_radius_bond
C 0.68
H 0.23
B 0.83
Cl 0.99
F 0.64
Mo 1.54
N 0.68
P 1.05
S 1.02
loop_
_atom_site_label
_atom_site_type_symbol
_atom_site_fract_x
_atom_site_fract_y
_atom_site_fract_z
Mo1 Mo 0.45960(4) 0.10129(4) 0.01651(4)
P1 P 0.40830(12) 0.21962(13) 0.05121(13)
C1 C 0.4632(5) 0.2971(5) 0.0651(5)
C2 C 0.3591(6) 0.2852(6) -0.0686(6)
H1 H 0.40630 0.29130 -0.07910
C3 C 0.4405(7) 0.3492(6) 0.1103(7)
H2 H 0.40020 0.34300 0.13700
C4 C 0.3403(5) 0.2530(5) -0.0065(5)
C5 C 0.3098(6) 0.3082(7) -0.1145(6)
H3 H 0.32380 0.33140 -0.15510
C6 C 0.5393(7) 0.4208(6) 0.0790(7)
H4 H 0.56630 0.46100 0.08490
C7 C 0.2381(6) 0.2976(6) -0.1020(7)
H5 H 0.20450 0.31230 -0.13420
C8 C 0.2685(6) 0.2421(5) 0.0074(6)
H6 H 0.25360 0.21990 0.04810
C9 C 0.5239(5) 0.3071(5) 0.0256(5)
H7 H 0.53920 0.27210 -0.00480
C10 C 0.2199(6) 0.2665(6) -0.0436(8)
H8 H 0.17240 0.25990 -0.03490
C11 C 0.5613(5) 0.3688(6) 0.0315(7)
H9 H 0.60100 0.37600 0.00410
C12 C 0.4805(8) 0.4135(7) 0.1154(8)
H10 H 0.46500 0.44960 0.14430
S1 S 0.51123(12) -0.01123(12) 0.01123(12)
S2 S 0.34355(12) 0.08531(12) -0.01136(12)
Cl1 Cl 0.56649(12) 0.13997(13) 0.07753(13)
N1 N 0.4271(4) 0.0821(4) 0.1312(4)
H11 H 0.37970 0.06260 0.12780
C13 C 0.4640(6) 0.0342(6) 0.1795(5)
H12 H 0.51440 0.04130 0.17710
H13 H 0.45370 -0.01430 0.16840
C14 C 0.4350(7) 0.0543(7) 0.2546(6)
H14 H 0.40420 0.01770 0.27200
H15 H 0.47330 0.06020 0.28740
C15 C 0.3686(5) 0.1986(6) 0.1367(5)
H16 H 0.36310 0.24080 0.16460
H17 H 0.32290 0.17730 0.13030
C16 C 0.4179(5) 0.1481(5) 0.1723(5)
H18 H 0.46380 0.17080 0.17660
C17 C 0.3957(7) 0.1212(6) 0.2463(5)
H19 H 0.40870 0.15450 0.28250
H20 H 0.34550 0.11320 0.24850
F1 F 0.2047(4) 0.2047(4) 0.2047(4)
F2 F 0.1286(5) 0.2085(4) 0.1160(4)
B1 B 0.1612(5) 0.1612(5) 0.1612(5)
Mo1C Mo 0.39871(4) -0.01651(4) -0.04040(4)
P1C P 0.28038(12) -0.05121(13) -0.09170(13)
C1C C 0.2029(5) -0.0651(5) -0.0368(5)
C2C C 0.2148(6) 0.0686(6) -0.1409(6)
H1C H 0.20870 0.07910 -0.09370
C3C C 0.1508(7) -0.1103(6) -0.0595(7)
H2C H 0.15700 -0.13700 -0.09980
C4C C 0.2470(5) 0.0065(5) -0.1597(5)
C5C C 0.1918(6) 0.1145(7) -0.1902(6)
H3C H 0.16860 0.15510 -0.17620
C6C C 0.0792(7) -0.0790(6) 0.0393(7)
H4C H 0.03900 -0.08490 0.06630
C7C C 0.2024(6) 0.1020(6) -0.2619(7)
H5C H 0.18770 0.13420 -0.29550
C8C C 0.2579(6) -0.0074(5) -0.2315(6)
H6C H 0.28010 -0.04810 -0.24640
C9C C 0.1929(5) -0.0256(5) 0.0239(5)
H7C H 0.22790 0.00480 0.03920
C10C C 0.2335(6) 0.0436(6) -0.2801(8)
H8C H 0.24010 0.03490 -0.32760
C11C C 0.1312(5) -0.0315(6) 0.0613(7)
H9C H 0.12400 -0.00410 0.10100
C12C C 0.0865(8) -0.1154(7) -0.0195(8)
H10C H 0.05040 -0.14430 -0.03500
S2C S 0.41469(12) 0.01136(12) -0.15645(12)
Cl1C Cl 0.36003(12) -0.07753(13) 0.06649(13)
N1C N 0.4179(4) -0.1312(4) -0.0729(4)
H11C H 0.43740 -0.12780 -0.12030
C13C C 0.4658(6) -0.1795(6) -0.0360(5)
H12C H 0.45870 -0.17710 0.01440
H13C H 0.51430 -0.16840 -0.04630
C14C C 0.4457(7) -0.2546(7) -0.0650(6)
H14C H 0.48230 -0.27200 -0.09580
H15C H 0.43980 -0.28740 -0.02670
C15C C 0.3014(5) -0.1367(6) -0.1314(5)
H16C H 0.25920 -0.16460 -0.13690
H17C H 0.32270 -0.13030 -0.17710
C16C C 0.3519(5) -0.1723(5) -0.0821(5)
H18C H 0.32920 -0.17660 -0.03620
C17C C 0.3788(7) -0.2463(6) -0.1043(5)
H19C H 0.34550 -0.28250 -0.09130
H20C H 0.38680 -0.24850 -0.15450
Mo1D Mo 0.51651(4) 0.04040(4) -0.10129(4)
P1D P 0.55121(12) 0.09170(13) -0.21962(13)
C1D C 0.5651(5) 0.0368(5) -0.2971(5)
C2D C 0.4314(6) 0.1409(6) -0.2852(6)
H1D H 0.42090 0.09370 -0.29130
C3D C 0.6103(7) 0.0595(6) -0.3492(7)
H2D H 0.63700 0.09980 -0.34300
C4D C 0.4935(5) 0.1597(5) -0.2530(5)
C5D C 0.3855(6) 0.1902(7) -0.3082(6)
H3D H 0.34490 0.17620 -0.33140
C6D C 0.5790(7) -0.0393(6) -0.4208(7)
H4D H 0.58490 -0.06630 -0.46100
C7D C 0.3980(6) 0.2619(6) -0.2976(7)
H5D H 0.36580 0.29550 -0.31230
C8D C 0.5074(6) 0.2315(5) -0.2421(6)
H6D H 0.54810 0.24640 -0.21990
C9D C 0.5256(5) -0.0239(5) -0.3071(5)
H7D H 0.49520 -0.03920 -0.27210
C10D C 0.4564(6) 0.2801(6) -0.2665(8)
H8D H 0.46510 0.32760 -0.25990
C11D C 0.5315(5) -0.0613(6) -0.3688(7)
H9D H 0.50410 -0.10100 -0.37600
C12D C 0.6154(8) 0.0195(7) -0.4135(8)
H10D H 0.64430 0.03500 -0.44960
S2D S 0.48864(12) 0.15645(12) -0.08531(12)
Cl1D Cl 0.57753(12) -0.06649(13) -0.13997(13)
N1D N 0.6312(4) 0.0729(4) -0.0821(4)
H11D H 0.62780 0.12030 -0.06260
C13D C 0.6795(6) 0.0360(6) -0.0342(5)
H12D H 0.67710 -0.01440 -0.04130
H13D H 0.66840 0.04630 0.01430
C14D C 0.7546(7) 0.0650(7) -0.0543(6)
H14D H 0.77200 0.09580 -0.01770
H15D H 0.78740 0.02670 -0.06020
C15D C 0.6367(5) 0.1314(6) -0.1986(5)
H16D H 0.66460 0.13690 -0.24080
H17D H 0.63030 0.17710 -0.17730
C16D C 0.6723(5) 0.0821(5) -0.1481(5)
H18D H 0.67660 0.03620 -0.17080
C17D C 0.7463(7) 0.1043(6) -0.1212(5)
H19D H 0.78250 0.09130 -0.15450
H20D H 0.74850 0.15450 -0.11320
F2A F 0.1160(5) 0.1286(4) 0.2085(4)
F2B F 0.2085(5) 0.1160(4) 0.1286(4)
#END

data_CSD_CIF_OKIPUV
_audit_creation_date 2016-04-11
_audit_creation_method CSD-ConQuest-V1
_database_code_CSD OKIPUV
_database_code_depnum_ccdc_archive 'CCDC 1455733'
_chemical_formula_sum 'C72 H84 B1 Cl3 F4 Mo3 N3 P3 S4'
_chemical_formula_moiety
;
C51 H60 Cl3 Mo3 N3 P3 S4 1+,B1 F4 1-,3(C7 H8)
;
_journal_coden_Cambridge 222
_journal_volume 45
_journal_year 2016
_journal_page_first 7829
_journal_name_full 'Dalton Trans. '
loop_
_publ_author_name
"C.Alfonso"
"M.Feliz"
"V.S.Safont"
"R.Llusar"
_chemical_name_systematic
;
(P)-(S~N~,S~C~)-(\m~3~-Sulfido)-tris(\m~2~-sulfido)-trichloro-bis(2-((diphenyl
phosphino)methyl)pyrrolidine)-tri-molybdenum tetrafluoroborate toluene 
;
_cell_volume   7472.747
_exptl_crystal_colour 'green'
_exptl_crystal_density_diffrn 1.505
_exptl_crystal_description 'prism'
_diffrn_ambient_temperature 200
#These two values have been output from a single CSD field.
_refine_ls_R_factor_gt 0.0448
_refine_ls_wR_factor_gt 0.0448
_symmetry_cell_setting cubic
_symmetry_space_group_name_H-M 'P 21 3'
_symmetry_Int_Tables_number 198
loop_
_symmetry_equiv_pos_site_id
_symmetry_equiv_pos_as_xyz
1 x,y,z
2 z,x,y
3 y,z,x
4 1/2-y,-z,1/2+x
5 1/2+z,1/2-x,-y
6 -y,1/2+z,1/2-x
7 1/2-z,-x,1/2+y
8 -z,1/2+x,1/2-y
9 1/2+y,1/2-z,-x
10 1/2-x,-y,1/2+z
11 1/2+x,1/2-y,-z
12 -x,1/2+y,1/2-z
_cell_length_a 19.5506(3)
_cell_length_b 19.5506(3)
_cell_length_c 19.5506(3)
_cell_angle_alpha 90
_cell_angle_beta 90
_cell_angle_gamma 90
_cell_formula_units_Z 4
loop_
_atom_type_symbol
_atom_type_radius_bond
C 0.68
H 0.23
B 0.83
Cl 0.99
F 0.64
Mo 1.54
N 0.68
P 1.05
S 1.02
loop_
_atom_site_label
_atom_site_type_symbol
_atom_site_fract_x
_atom_site_fract_y
_atom_site_fract_z
Mo1 Mo -0.96799(3) -0.90958(3) -0.02471(3)
S1 S -1.01862(8) -1.01862(8) -0.01862(8)
Cl1 Cl -1.07582(8) -0.86926(9) -0.07818(9)
P1 P -0.92253(9) -0.79577(9) -0.06949(9)
S2 S -0.99698(9) -0.85506(8) 0.07508(8)
N1 N -0.9399(3) -0.9370(3) -0.1352(3)
H1 H -0.91130 -0.97770 -0.12940
C1 C -0.9673(4) -0.7139(3) -0.0673(4)
C2 C -0.8991(4) -0.9095(4) -0.2496(4)
H2 H -0.91680 -0.87180 -0.27660
H3 H -0.85500 -0.92290 -0.26780
C3 C -1.0309(5) -0.5875(4) -0.0687(4)
H4 H -1.05270 -0.54520 -0.06940
C4 C -1.0573(5) -0.6395(4) -0.0310(5)
H5 H -1.09700 -0.63250 -0.00580
C5 C -0.8350(4) -0.7474(4) 0.0298(5)
H6 H -0.87480 -0.73910 0.05460
C6 C -0.8387(4) -0.7725(4) -0.0371(4)
C7 C -0.9402(4) -0.6596(4) -0.1056(4)
H7 H -0.90050 -0.66600 -0.13090
C8 C -0.9724(5) -0.5970(4) -0.1057(4)
H8 H -0.95420 -0.56110 -0.13100
C9 C -0.8926(4) -0.8883(4) -0.1728(3)
H9 H -0.84540 -0.89480 -0.15720
C10 C -1.0254(4) -0.7033(4) -0.0296(4)
H10 H -1.04350 -0.73850 -0.00330
C11 C -0.9486(5) -0.9693(5) -0.2506(4)
H11 H -0.92420 -1.01250 -0.24960
H12 H -0.97720 -0.96800 -0.29110
C12 C -0.9146(4) -0.8145(4) -0.1614(4)
H13 H -0.95810 -0.80660 -0.18370
H14 H -0.88110 -0.78400 -0.18160
C13 C -0.7792(4) -0.7864(4) -0.0731(5)
H15 H -0.78140 -0.80400 -0.11720
C14 C -0.7162(5) -0.7738(5) -0.0428(6)
H16 H -0.67600 -0.78300 -0.06640
C15 C -0.7712(5) -0.7349(5) 0.0587(6)
H17 H -0.76810 -0.71770 0.10290
C16 C -0.7138(5) -0.7477(5) 0.0225(7)
H18 H -0.67140 -0.73860 0.04220
C17 C -0.9912(4) -0.9600(5) -0.1861(4)
H19 H -1.02650 -0.92580 -0.19280
H20 H -1.01240 -1.00270 -0.17230
C18 C -1.0153(7) -0.7023(7) -0.2941(7)
C19 C -1.0126(8) -0.7687(8) -0.3270(8)
H21 H -0.98250 -0.77900 -0.36240
C20 C -1.0600(7) -0.6905(8) -0.2434(7)
H22 H -1.06030 -0.64770 -0.22280
C21 C -1.0989(9) -0.8043(9) -0.2523(8)
H23 H -1.12510 -0.84070 -0.23660
C22 C -1.0585(8) -0.8147(8) -0.3012(8)
H24 H -1.06000 -0.85760 -0.32170
C23 C -1.1066(9) -0.7404(9) -0.2200(9)
H25 H -1.13930 -0.73190 -0.18650
C24 C -0.9688(10) -0.6541(10) -0.3188(9)
H26 H -0.99260 -0.62080 -0.34590
H27 H -0.93500 -0.67660 -0.34650
H28 H -0.94680 -0.63170 -0.28110
F1 F -0.8125(3) -0.7705(3) -0.3094(3)
F2 F -0.7297(4) -0.7703(4) -0.2297(4)
B1 B -0.7707(6) -0.7293(6) -0.2707(6)
Mo1A Mo -1.02471(3) -0.96799(3) 0.09042(3)
Cl1A Cl -1.07818(8) -1.07582(9) 0.13074(9)
P1A P -1.06949(9) -0.92253(9) 0.20423(9)
S2A S -0.92492(9) -0.99698(8) 0.14494(8)
N1A N -1.1352(3) -0.9399(3) 0.0630(3)
H1A H -1.12940 -0.91130 0.02230
C1A C -1.0673(4) -0.9673(3) 0.2861(4)
C2A C -1.2496(4) -0.8991(4) 0.0905(4)
H2A H -1.27660 -0.91680 0.12820
H3A H -1.26780 -0.85500 0.07710
C3A C -1.0687(5) -1.0309(4) 0.4125(4)
H4A H -1.06940 -1.05270 0.45480
C4A C -1.0310(5) -1.0573(4) 0.3605(5)
H5A H -1.00580 -1.09700 0.36750
C5A C -0.9702(4) -0.8350(4) 0.2526(5)
H6A H -0.94540 -0.87480 0.26090
C6A C -1.0371(4) -0.8387(4) 0.2275(4)
C7A C -1.1056(4) -0.9402(4) 0.3404(4)
H7A H -1.13090 -0.90050 0.33400
C8A C -1.1057(5) -0.9724(4) 0.4030(4)
H8A H -1.13100 -0.95420 0.43890
C9A C -1.1728(4) -0.8926(4) 0.1117(3)
H9A H -1.15720 -0.84540 0.10520
C10A C -1.0296(4) -1.0254(4) 0.2967(4)
H10A H -1.00330 -1.04350 0.26150
C11A C -1.2506(5) -0.9486(5) 0.0307(4)
H11A H -1.24960 -0.92420 -0.01250
H12A H -1.29110 -0.97720 0.03200
C12A C -1.1614(4) -0.9146(4) 0.1855(4)
H13A H -1.18370 -0.95810 0.19340
H14A H -1.18160 -0.88110 0.21600
C13A C -1.0731(4) -0.7792(4) 0.2136(5)
H15A H -1.11720 -0.78140 0.19600
C14A C -1.0428(5) -0.7162(5) 0.2262(6)
H16A H -1.06640 -0.67600 0.21700
C15A C -0.9413(5) -0.7712(5) 0.2651(6)
H17A H -0.89710 -0.76810 0.28230
C16A C -0.9775(5) -0.7138(5) 0.2523(7)
H18A H -0.95780 -0.67140 0.26140
C17A C -1.1861(4) -0.9912(5) 0.0400(4)
H19A H -1.19280 -1.02650 0.07420
H20A H -1.17230 -1.01240 -0.00270
Mo1B Mo -0.90958(3) -1.02471(3) 0.03201(3)
Cl1B Cl -0.86926(8) -1.07818(9) -0.07582(9)
P1B P -0.79577(9) -1.06949(9) 0.07747(9)
S2B S -0.85506(9) -0.92492(8) 0.00302(8)
N1B N -0.9370(3) -1.1352(3) 0.0601(3)
H1B H -0.97770 -1.12940 0.08870
C1B C -0.7139(4) -1.0673(3) 0.0327(4)
C2B C -0.9095(4) -1.2496(4) 0.1009(4)
H2B H -0.87180 -1.27660 0.08320
H3B H -0.92290 -1.26780 0.14500
C3B C -0.5875(5) -1.0687(4) -0.0309(4)
H4B H -0.54520 -1.06940 -0.05270
C4B C -0.6395(5) -1.0310(4) -0.0573(5)
H5B H -0.63250 -1.00580 -0.09700
C5B C -0.7474(4) -0.9702(4) 0.1650(5)
H6B H -0.73910 -0.94540 0.12520
C6B C -0.7725(4) -1.0371(4) 0.1613(4)
C7B C -0.6596(4) -1.1056(4) 0.0598(4)
H7B H -0.66600 -1.13090 0.09950
C8B C -0.5970(5) -1.1057(4) 0.0276(4)
H8B H -0.56110 -1.13100 0.04580
C9B C -0.8883(4) -1.1728(4) 0.1074(3)
H9B H -0.89480 -1.15720 0.15460
C10B C -0.7033(4) -1.0296(4) -0.0254(4)
H10B H -0.73850 -1.00330 -0.04350
C11B C -0.9693(5) -1.2506(5) 0.0514(4)
H11B H -1.01250 -1.24960 0.07580
H12B H -0.96800 -1.29110 0.02280
C12B C -0.8145(4) -1.1614(4) 0.0854(4)
H13B H -0.80660 -1.18370 0.04190
H14B H -0.78400 -1.18160 0.11890
C13B C -0.7864(4) -1.0731(4) 0.2208(5)
H15B H -0.80400 -1.11720 0.21860
C14B C -0.7738(5) -1.0428(5) 0.2838(6)
H16B H -0.78300 -1.06640 0.32400
C15B C -0.7349(5) -0.9413(5) 0.2288(6)
H17B H -0.71770 -0.89710 0.23190
C16B C -0.7477(5) -0.9775(5) 0.2862(7)
H18B H -0.73860 -0.95780 0.32860
C17B C -0.9600(4) -1.1861(5) 0.0088(4)
H19B H -0.92580 -1.19280 -0.02650
H20B H -1.00270 -1.17230 -0.01240
F1C F -0.7295(3) -0.6906(3) -0.3125(3)
F1D F -0.8094(3) -0.6875(3) -0.2295(3)
#END

data_CSD_CIF_OLIKEB
_audit_creation_date 2016-05-12
_audit_creation_method CSD-ConQuest-V1
_database_code_CSD OLIKEB
_database_code_depnum_ccdc_archive 'CCDC 1413010'
_chemical_formula_sum 'C27 H18 N3 O4 P1'
_chemical_formula_moiety
;
C27 H18 N3 O4 P1
;
_journal_coden_Cambridge 222
_journal_volume 45
_journal_year 2016
_journal_page_first 9187
_journal_name_full 'Dalton Trans. '
loop_
_publ_author_name
"D.Sain"
"C.Kumari"
"A.Kumar"
"H.P.Nayek"
"Swapan Dey"
_chemical_name_systematic
;
Triquinolin-8-yl phosphate
;
_cell_volume   2402.658
_exptl_crystal_colour 'colorless'
_exptl_crystal_density_diffrn 1.325
_exptl_crystal_description 'block'
_diffrn_ambient_temperature 293
#These two values have been output from a single CSD field.
_refine_ls_R_factor_gt 0.049
_refine_ls_wR_factor_gt 0.049
_symmetry_cell_setting cubic
_symmetry_space_group_name_H-M 'P 21 3'
_symmetry_Int_Tables_number 198
loop_
_symmetry_equiv_pos_site_id
_symmetry_equiv_pos_as_xyz
1 x,y,z
2 1/2-x,-y,1/2+z
3 -x,1/2+y,1/2-z
4 1/2+x,1/2-y,-z
5 z,x,y
6 1/2+z,1/2-x,-y
7 1/2-z,-x,1/2+y
8 -z,1/2+x,1/2-y
9 y,z,x
10 -y,1/2+z,1/2-x
11 1/2+y,1/2-z,-x
12 1/2-y,-z,1/2+x
_cell_length_a 13.3936(15)
_cell_length_b 13.3936(15)
_cell_length_c 13.3936(15)
_cell_angle_alpha 90
_cell_angle_beta 90
_cell_angle_gamma 90
_cell_formula_units_Z 4
loop_
_atom_type_symbol
_atom_type_radius_bond
C 0.68
H 0.23
N 0.68
O 0.68
P 1.05
loop_
_atom_site_label
_atom_site_type_symbol
_atom_site_fract_x
_atom_site_fract_y
_atom_site_fract_z
O1 O -0.03163(14) 0.46837(14) 1.03163(14)
C1 C 0.1723(2) 0.3959(2) 0.9566(2)
C2 C 0.1348(3) 0.3262(3) 0.8945(3)
H1 H 0.08610 0.34320 0.84810
C3 C 0.1703(3) 0.2270(3) 0.9007(3)
H2 H 0.14310 0.17790 0.85980
C4 C 0.2439(3) 0.2031(2) 0.9661(3)
H3 H 0.26730 0.13780 0.96870
C5 C 0.2851(2) 0.2751(2) 1.0297(3)
C6 C 0.3629(3) 0.2556(3) 1.0983(3)
H4 H 0.39000 0.19190 1.10260
C7 C 0.3977(3) 0.3287(3) 1.1571(3)
H5 H 0.44830 0.31590 1.20290
C8 C 0.3566(3) 0.4250(3) 1.1487(3)
H6 H 0.38200 0.47500 1.18970
C9 C 0.2489(2) 0.3744(2) 1.0264(2)
N1 N 0.28416(19) 0.44867(18) 1.0864(2)
O2 O 0.14169(14) 0.49646(14) 0.95332(17)
P1 P 0.03091(5) 0.53091(5) 0.96909(5)
C1G C 0.0434(2) 0.6723(2) 1.1041(2)
C2G C 0.1055(3) 0.6348(3) 1.1738(3)
H1G H 0.15190 0.58610 1.15680
C3G C 0.0993(3) 0.6703(3) 1.2730(3)
H2G H 0.14020 0.64310 1.32210
C4G C 0.0339(3) 0.7439(2) 1.2969(3)
H3G H 0.03130 0.76730 1.36220
C5G C -0.0297(2) 0.7851(2) 1.2249(3)
C6G C -0.0983(3) 0.8629(3) 1.2444(3)
H4G H -0.10260 0.89000 1.30810
C7G C -0.1571(3) 0.8977(3) 1.1713(3)
H5G H -0.20290 0.94830 1.18410
C8G C -0.1487(3) 0.8566(3) 1.0750(3)
H6G H -0.18970 0.88200 1.02500
C9G C -0.0264(2) 0.7489(2) 1.1256(2)
N1G N -0.08640(19) 0.78416(18) 1.05133(20)
O2G O 0.04668(14) 0.64169(14) 1.00354(17)
C1J C -0.1041(2) 0.5434(2) 0.8277(2)
C2J C -0.1738(3) 0.6055(3) 0.8652(3)
H1J H -0.15680 0.65190 0.91390
C3J C -0.2730(3) 0.5993(3) 0.8297(3)
H2J H -0.32210 0.64020 0.85690
C4J C -0.2969(3) 0.5339(2) 0.7561(3)
H3J H -0.36220 0.53130 0.73270
C5J C -0.2249(2) 0.4703(2) 0.7149(3)
C6J C -0.2444(3) 0.4017(3) 0.6371(3)
H4J H -0.30810 0.39740 0.61000
C7J C -0.1713(3) 0.3429(3) 0.6023(3)
H5J H -0.18410 0.29710 0.55170
C8J C -0.0750(3) 0.3513(3) 0.6434(3)
H6J H -0.02500 0.31030 0.61800
C9J C -0.1256(2) 0.4736(2) 0.7511(2)
N1J N -0.05133(19) 0.41360(18) 0.71584(20)
O2J O -0.00354(14) 0.54668(14) 0.85831(17)
#END

data_CSD_CIF_OYEBOK
_audit_creation_date 2011-10-18
_audit_creation_method CSD-ConQuest-V1
_database_code_CSD OYEBOK
_database_code_depnum_ccdc_archive 'CCDC 806173'
_chemical_formula_sum 'C158 H141 Cd3 Cu9 I3 N7 P4 S12'
_chemical_formula_moiety
;
C116 H102 Cu8 N4 P4 S6 1+,C36 H30 Cd3 Cu1 I3 S6 1-,3(C2 H3 N1)
;
_journal_coden_Cambridge 580
_journal_volume 30
_journal_year 2011
_journal_page_first 2637
_journal_name_full 'Polyhedron '
loop_
_publ_author_name
"Chao Xu"
"Xiao-Yi Yi"
"Tai-Ke Duan"
"Qun Chen"
"Qian-Feng Zhang"
_chemical_name_systematic
;
hexakis(\m~4~-Phenylsulfido)-tetrakis(acetonitrile)-tetrakis(triphenylphosphin
e)-octa-copper(i) hexakis(\m~2~-phenylsulfido)-tris(iodo)-tri-cadmium-copper 
acetonitrile solvate
;
_cell_volume  16812.040
_exptl_crystal_colour 'yellow'
_exptl_crystal_density_diffrn 1.555
_exptl_crystal_description 'prism'
_diffrn_ambient_temperature 296
#These two values have been output from a single CSD field.
_refine_ls_R_factor_gt 0.0474
_refine_ls_wR_factor_gt 0.0474
_symmetry_cell_setting cubic
_symmetry_space_group_name_H-M 'P 21 3'
_symmetry_Int_Tables_number 198
loop_
_symmetry_equiv_pos_site_id
_symmetry_equiv_pos_as_xyz
1 x,y,z
2 1/2-x,-y,1/2+z
3 -x,1/2+y,1/2-z
4 1/2+x,1/2-y,-z
5 z,x,y
6 1/2+z,1/2-x,-y
7 1/2-z,-x,1/2+y
8 -z,1/2+x,1/2-y
9 y,z,x
10 -y,1/2+z,1/2-x
11 1/2+y,1/2-z,-x
12 1/2-y,-z,1/2+x
_cell_length_a 25.6177(13)
_cell_length_b 25.6177(13)
_cell_length_c 25.6177(13)
_cell_angle_alpha 90
_cell_angle_beta 90
_cell_angle_gamma 90
_cell_formula_units_Z 4
loop_
_atom_type_symbol
_atom_type_radius_bond
C 0.68
H 0.23
Cd 1.44
Cu 1.23
I 1.40
N 0.68
P 1.05
S 1.02
loop_
_atom_site_label
_atom_site_type_symbol
_atom_site_fract_x
_atom_site_fract_y
_atom_site_fract_z
Cd1 Cd -0.01323(3) 0.89230(3) 0.85634(3)
Cu1 Cu 0.59830(4) 0.64955(4) 0.73386(4)
Cu2 Cu 0.70334(3) 0.70334(3) 0.70334(3)
Cu3 Cu 0.54577(3) 0.68083(3) 0.63888(4)
Cu4 Cu 0.58180(4) 0.58180(4) 0.58180(4)
Cu5 Cu -0.03059(4) 0.96941(4) 0.96941(4)
I1 I 0.04594(3) 0.85393(4) 0.77558(3)
P1 P 0.46669(7) 0.71416(7) 0.62859(7)
P2 P 0.75345(7) 0.75345(7) 0.75345(7)
S1 S 0.55605(6) 0.59562(6) 0.67080(7)
S2 S 0.68311(6) 0.61421(6) 0.72810(6)
S3 S 0.03880(9) 0.94756(10) 0.92019(10)
S4 S -0.09322(7) 0.94123(7) 0.81598(7)
N1 N 0.5378(3) 0.5378(3) 0.5378(3)
N2 N 0.5635(3) 0.6626(3) 0.7998(3)
N3 N 0.6072(8) 0.9040(12) 0.9495(8)
C1 C 0.5131(4) 0.5131(4) 0.5131(4)
C2 C 0.4791(4) 0.4791(4) 0.4791(4)
H1 H 0.48190 0.49040 0.44350
C3 C 0.5393(4) 0.6735(4) 0.8351(3)
C4 C 0.5052(6) 0.6850(6) 0.8792(5)
H2 H 0.47560 0.66190 0.87850
H3 H 0.49340 0.72050 0.87700
H4 H 0.52400 0.68010 0.91120
C5 C 0.6368(7) 0.9119(6) 0.9136(8)
C6 C 0.6779(7) 0.9189(6) 0.8736(8)
H5 H 0.70850 0.89990 0.88370
H6 H 0.68620 0.95530 0.87060
H7 H 0.66550 0.90610 0.84060
C7 C 0.4956(3) 0.5679(2) 0.6897(3)
C8 C 0.4576(3) 0.5562(3) 0.6540(3)
H8 H 0.46380 0.56160 0.61870
C9 C 0.4095(3) 0.5362(3) 0.6702(4)
H9 H 0.38380 0.52910 0.64550
C10 C 0.3999(4) 0.5271(4) 0.7206(4)
H10 H 0.36770 0.51370 0.73090
C11 C 0.4382(4) 0.5379(4) 0.7579(4)
H11 H 0.43140 0.53130 0.79300
C12 C 0.4860(3) 0.5581(3) 0.7435(3)
H12 H 0.51140 0.56520 0.76840
C13 C 0.7123(2) 0.5945(2) 0.7880(3)
C14 C 0.7437(3) 0.5508(3) 0.7883(3)
H13 H 0.74810 0.53070 0.75840
C15 C 0.7695(3) 0.5372(3) 0.8363(4)
H14 H 0.79130 0.50820 0.83730
C16 C 0.7626(4) 0.5660(4) 0.8798(4)
H15 H 0.77990 0.55710 0.91050
C17 C 0.7297(4) 0.6087(4) 0.8784(3)
H16 H 0.72370 0.62790 0.90870
C18 C 0.7057(3) 0.6232(3) 0.8326(3)
H17 H 0.68470 0.65280 0.83190
C19 C 0.7291(3) 0.7629(3) 0.8197(3)
C20 C 0.6763(3) 0.7670(3) 0.8274(3)
H18 H 0.65410 0.76290 0.79900
C21 C 0.6552(4) 0.7769(4) 0.8755(4)
H19 H 0.61950 0.78190 0.87930
C22 C 0.6873(6) 0.7792(4) 0.9176(4)
H20 H 0.67310 0.78360 0.95070
C23 C 0.7386(5) 0.7754(4) 0.9123(4)
H21 H 0.75990 0.77890 0.94140
C24 C 0.7615(4) 0.7658(3) 0.8626(3)
H22 H 0.79740 0.76170 0.85920
C25 C 0.3469(4) 0.6193(4) 0.5774(4)
H23 H 0.31460 0.60720 0.58870
C26 C 0.4678(3) 0.7753(3) 0.5929(3)
C27 C 0.4289(4) 0.7898(4) 0.5580(4)
H24 H 0.39840 0.77010 0.55560
C28 C 0.4354(5) 0.8339(4) 0.5264(5)
H25 H 0.41040 0.84260 0.50160
C29 C 0.4793(5) 0.8644(4) 0.5324(4)
H26 H 0.48310 0.89430 0.51210
C30 C 0.5182(4) 0.8513(3) 0.5683(3)
H27 H 0.54730 0.87260 0.57230
C31 C 0.5133(3) 0.8078(3) 0.5971(3)
H28 H 0.53980 0.79850 0.62020
C32 C 0.4297(3) 0.7275(3) 0.6880(3)
C33 C 0.4068(4) 0.7738(4) 0.6985(4)
H29 H 0.40970 0.80160 0.67530
C34 C 0.3792(5) 0.7791(5) 0.7440(4)
H30 H 0.36160 0.81030 0.75020
C35 C 0.3765(5) 0.7403(5) 0.7811(5)
H31 H 0.35820 0.74500 0.81200
C36 C 0.4000(5) 0.6976(4) 0.7713(4)
H32 H 0.39870 0.67100 0.79590
C37 C 0.4275(4) 0.6890(4) 0.7255(4)
H33 H 0.44450 0.65740 0.72000
C38 C 0.4246(3) 0.6731(3) 0.5906(3)
C39 C 0.3752(3) 0.6551(3) 0.6070(4)
H34 H 0.36120 0.66730 0.63820
C40 C 0.3672(5) 0.6028(4) 0.5322(5)
H35 H 0.34800 0.57920 0.51250
C41 C 0.4145(4) 0.6187(4) 0.5135(4)
H36 H 0.42770 0.60580 0.48220
C42 C 0.4423(3) 0.6548(3) 0.5430(3)
H37 H 0.47390 0.66710 0.53030
C43 C 0.0787(3) 0.9004(4) 0.9516(4)
C44 C 0.0835(4) 0.8980(5) 1.0061(5)
H38 H 0.06270 0.91950 1.02660
C45 C 0.1156(6) 0.8670(7) 1.0281(8)
H39 H 0.11860 0.86830 1.06420
C46 C 0.1433(7) 0.8348(7) 1.0038(10)
H40 H 0.16490 0.81170 1.02160
C47 C 0.1411(5) 0.8344(5) 0.9487(8)
H41 H 0.16190 0.81110 0.93010
C48 C 0.1083(5) 0.8684(5) 0.9217(6)
H42 H 0.10690 0.86900 0.88540
C49 C -0.0733(5) 0.9899(5) 0.7740(5)
C50 C -0.0196(6) 1.0005(6) 0.7683(6)
H43 H 0.00540 0.98350 0.78850
C51 C -0.0047(7) 1.0403(7) 0.7286(6)
H44 H 0.02990 1.05070 0.72500
C52 C -0.0410(7) 1.0603(7) 0.6987(7)
H45 H -0.03060 1.08000 0.67000
C53 C -0.0956(8) 1.0535(7) 0.7075(7)
H46 H -0.12030 1.07400 0.69070
C54 C -0.1104(7) 1.0132(7) 0.7440(7)
H47 H -0.14510 1.00330 0.74700
Cd1D Cd -0.14366(3) 0.98677(3) 0.89230(3)
Cd1H Cd -0.10770(3) 0.85634(3) 0.98677(3)
Cu1H Cu 0.64955(4) 0.73386(4) 0.59830(4)
Cu1D Cu 0.73386(4) 0.59830(4) 0.64955(4)
Cu3D Cu 0.63888(3) 0.54577(3) 0.68083(4)
Cu3H Cu 0.68083(3) 0.63888(3) 0.54577(4)
I1D I -0.22442(3) 1.04594(4) 0.85393(3)
I1H I -0.14607(3) 0.77558(4) 1.04594(3)
P1D P 0.62859(7) 0.46669(7) 0.71416(7)
P1H P 0.71416(7) 0.62859(7) 0.46669(7)
S1H S 0.59562(6) 0.67080(6) 0.55605(7)
S1D S 0.67080(6) 0.55605(6) 0.59562(7)
S2H S 0.61421(6) 0.72810(6) 0.68311(6)
S2D S 0.72810(6) 0.68311(6) 0.61421(6)
S3D S -0.07981(9) 1.0388(1) 0.94756(10)
S3H S -0.05244(9) 0.92019(10) 1.0388(1)
S4D S -0.18402(7) 0.90678(7) 0.94123(7)
S4H S -0.05877(7) 0.81598(7) 0.90678(7)
N2D N 0.7998(3) 0.5635(3) 0.6626(3)
N2H N 0.6626(3) 0.7998(3) 0.5635(3)
H1D H 0.44350 0.48190 0.49040
H1H H 0.49040 0.44350 0.48190
C3D C 0.8351(4) 0.5393(4) 0.6735(3)
C3H C 0.6735(4) 0.8351(4) 0.5393(3)
C4D C 0.8792(6) 0.5052(6) 0.6850(5)
C4H C 0.6850(6) 0.8792(6) 0.5052(5)
H2D H 0.87850 0.47560 0.66190
H2H H 0.66190 0.87850 0.47560
H3D H 0.87700 0.49340 0.72050
H3H H 0.72050 0.87700 0.49340
H4D H 0.91120 0.52400 0.68010
H4H H 0.68010 0.91120 0.52400
C7H C 0.5679(3) 0.6897(2) 0.4956(3)
C7D C 0.6897(3) 0.4956(2) 0.5679(3)
C8H C 0.5562(3) 0.6540(3) 0.4576(3)
C8D C 0.6540(3) 0.4576(3) 0.5562(3)
H8H H 0.56160 0.61870 0.46380
H8D H 0.61870 0.46380 0.56160
C9H C 0.5362(3) 0.6702(3) 0.4095(4)
C9D C 0.6702(3) 0.4095(3) 0.5362(4)
H9H H 0.52910 0.64550 0.38380
H9D H 0.64550 0.38380 0.52910
C10H C 0.5271(4) 0.7206(4) 0.3999(4)
C10D C 0.7206(4) 0.3999(4) 0.5271(4)
H10H H 0.51370 0.73090 0.36770
H10D H 0.73090 0.36770 0.51370
C11H C 0.5379(4) 0.7579(4) 0.4382(4)
C11D C 0.7579(4) 0.4382(4) 0.5379(4)
H11H H 0.53130 0.79300 0.43140
H11D H 0.79300 0.43140 0.53130
C12H C 0.5581(3) 0.7435(3) 0.4860(3)
C12D C 0.7435(3) 0.4860(3) 0.5581(3)
H12H H 0.56520 0.76840 0.51140
H12D H 0.76840 0.51140 0.56520
C13H C 0.5945(2) 0.7880(2) 0.7123(3)
C13D C 0.7880(2) 0.7123(2) 0.5945(3)
C14H C 0.5508(3) 0.7883(3) 0.7437(3)
C14D C 0.7883(3) 0.7437(3) 0.5508(3)
H13H H 0.53070 0.75840 0.74810
H13D H 0.75840 0.74810 0.53070
C15H C 0.5372(3) 0.8363(3) 0.7695(4)
C15D C 0.8363(3) 0.7695(3) 0.5372(4)
H14H H 0.50820 0.83730 0.79130
H14D H 0.83730 0.79130 0.50820
C16H C 0.5660(4) 0.8798(4) 0.7626(4)
C16D C 0.8798(4) 0.7626(4) 0.5660(4)
H15H H 0.55710 0.91050 0.77990
H15D H 0.91050 0.77990 0.55710
C17H C 0.6087(4) 0.8784(4) 0.7297(3)
C17D C 0.8784(4) 0.7297(4) 0.6087(3)
H16H H 0.62790 0.90870 0.72370
H16D H 0.90870 0.72370 0.62790
C18H C 0.6232(3) 0.8326(3) 0.7057(3)
C18D C 0.8326(3) 0.7057(3) 0.6232(3)
H17H H 0.65280 0.83190 0.68470
H17D H 0.83190 0.68470 0.65280
C19D C 0.8197(3) 0.7291(3) 0.7629(3)
C19H C 0.7629(3) 0.8197(3) 0.7291(3)
C20D C 0.8274(3) 0.6763(3) 0.7670(3)
C20H C 0.7670(3) 0.8274(3) 0.6763(3)
H18D H 0.79900 0.65410 0.76290
H18H H 0.76290 0.79900 0.65410
C21D C 0.8755(4) 0.6552(4) 0.7769(4)
C21H C 0.7769(4) 0.8755(4) 0.6552(4)
H19D H 0.87930 0.61950 0.78190
H19H H 0.78190 0.87930 0.61950
C22D C 0.9176(6) 0.6873(4) 0.7792(4)
C22H C 0.7792(6) 0.9176(4) 0.6873(4)
H20D H 0.95070 0.67310 0.78360
H20H H 0.78360 0.95070 0.67310
C23D C 0.9123(5) 0.7386(4) 0.7754(4)
C23H C 0.7754(5) 0.9123(4) 0.7386(4)
H21D H 0.94140 0.75990 0.77890
H21H H 0.77890 0.94140 0.75990
C24D C 0.8626(4) 0.7615(3) 0.7658(3)
C24H C 0.7658(4) 0.8626(3) 0.7615(3)
H22D H 0.85920 0.79740 0.76170
H22H H 0.76170 0.85920 0.79740
C25D C 0.5774(4) 0.3469(4) 0.6193(4)
C25H C 0.6193(4) 0.5774(4) 0.3469(4)
H23D H 0.58870 0.31460 0.60720
H23H H 0.60720 0.58870 0.31460
C26D C 0.5929(3) 0.4678(3) 0.7753(3)
C26H C 0.7753(3) 0.5929(3) 0.4678(3)
C27D C 0.5580(4) 0.4289(4) 0.7898(4)
C27H C 0.7898(4) 0.5580(4) 0.4289(4)
H24D H 0.55560 0.39840 0.77010
H24H H 0.77010 0.55560 0.39840
C28D C 0.5264(5) 0.4354(4) 0.8339(5)
C28H C 0.8339(5) 0.5264(4) 0.4354(5)
H25D H 0.50160 0.41040 0.84260
H25H H 0.84260 0.50160 0.41040
C29D C 0.5324(5) 0.4793(4) 0.8644(4)
C29H C 0.8644(5) 0.5324(4) 0.4793(4)
H26D H 0.51210 0.48310 0.89430
H26H H 0.89430 0.51210 0.48310
C30D C 0.5683(4) 0.5182(3) 0.8513(3)
C30H C 0.8513(4) 0.5683(3) 0.5182(3)
H27D H 0.57230 0.54730 0.87260
H27H H 0.87260 0.57230 0.54730
C31D C 0.5971(3) 0.5133(3) 0.8078(3)
C31H C 0.8078(3) 0.5971(3) 0.5133(3)
H28D H 0.62020 0.53980 0.79850
H28H H 0.79850 0.62020 0.53980
C32D C 0.6880(3) 0.4297(3) 0.7275(3)
C32H C 0.7275(3) 0.6880(3) 0.4297(3)
C33D C 0.6985(4) 0.4068(4) 0.7738(4)
C33H C 0.7738(4) 0.6985(4) 0.4068(4)
H29D H 0.67530 0.40970 0.80160
H29H H 0.80160 0.67530 0.40970
C34D C 0.7440(5) 0.3792(5) 0.7791(4)
C34H C 0.7791(5) 0.7440(5) 0.3792(4)
H30D H 0.75020 0.36160 0.81030
H30H H 0.81030 0.75020 0.36160
C35D C 0.7811(5) 0.3765(5) 0.7403(5)
C35H C 0.7403(5) 0.7811(5) 0.3765(5)
H31D H 0.81200 0.35820 0.74500
H31H H 0.74500 0.81200 0.35820
C36D C 0.7713(5) 0.4000(4) 0.6976(4)
C36H C 0.6976(5) 0.7713(4) 0.4000(4)
H32D H 0.79590 0.39870 0.67100
H32H H 0.67100 0.79590 0.39870
C37D C 0.7255(4) 0.4275(4) 0.6890(4)
C37H C 0.6890(4) 0.7255(4) 0.4275(4)
H33D H 0.72000 0.44450 0.65740
H33H H 0.65740 0.72000 0.44450
C38D C 0.5906(3) 0.4246(3) 0.6731(3)
C38H C 0.6731(3) 0.5906(3) 0.4246(3)
C39D C 0.6070(3) 0.3752(3) 0.6551(4)
C39H C 0.6551(3) 0.6070(3) 0.3752(4)
H34D H 0.63820 0.36120 0.66730
H34H H 0.66730 0.63820 0.36120
C40D C 0.5322(5) 0.3672(4) 0.6028(5)
C40H C 0.6028(5) 0.5322(4) 0.3672(5)
H35D H 0.51250 0.34800 0.57920
H35H H 0.57920 0.51250 0.34800
C41D C 0.5135(4) 0.4145(4) 0.6187(4)
C41H C 0.6187(4) 0.5135(4) 0.4145(4)
H36D H 0.48220 0.42770 0.60580
H36H H 0.60580 0.48220 0.42770
C42D C 0.5430(3) 0.4423(3) 0.6548(3)
C42H C 0.6548(3) 0.5430(3) 0.4423(3)
H37D H 0.53030 0.47390 0.66710
H37H H 0.66710 0.53030 0.47390
C43H C -0.0996(3) 0.9516(4) 1.0787(4)
C43D C -0.0484(3) 1.0787(4) 0.9004(4)
C44H C -0.1020(4) 1.0061(5) 1.0835(5)
C44D C 0.0061(4) 1.0835(5) 0.8980(5)
H38H H -0.08050 1.02660 1.06270
H38D H 0.02660 1.06270 0.91950
C45H C -0.1330(6) 1.0281(7) 1.1156(8)
C45D C 0.0281(6) 1.1156(7) 0.8670(8)
H39H H -0.13170 1.06420 1.11860
H39D H 0.06420 1.11860 0.86830
C46H C -0.1652(7) 1.0038(7) 1.1433(10)
C46D C 0.0038(7) 1.1433(7) 0.8348(10)
H40H H -0.18830 1.02160 1.16490
H40D H 0.02160 1.16490 0.81170
C47H C -0.1656(5) 0.9487(5) 1.1411(8)
C47D C -0.0513(5) 1.1411(5) 0.8344(8)
H41H H -0.18890 0.93010 1.16190
H41D H -0.06990 1.16190 0.81110
C48H C -0.1316(5) 0.9217(5) 1.1083(6)
C48D C -0.0783(5) 1.1083(5) 0.8684(6)
H42H H -0.13100 0.88540 1.10690
H42D H -0.11460 1.10690 0.86900
C49H C -0.0101(5) 0.7740(5) 0.9267(5)
C49D C -0.2260(5) 0.9267(5) 0.9899(5)
C50H C 0.0005(6) 0.7683(6) 0.9804(6)
C50D C -0.2317(6) 0.9804(6) 1.0005(6)
H43H H -0.01650 0.78850 1.00540
H43D H -0.21150 1.00540 0.98350
C51H C 0.0403(7) 0.7286(7) 0.9953(6)
C51D C -0.2714(7) 0.9953(7) 1.0403(6)
H44H H 0.05070 0.72500 1.02990
H44D H -0.27500 1.02990 1.05070
C52H C 0.0603(7) 0.6987(7) 0.9590(7)
C52D C -0.3013(7) 0.9590(7) 1.0603(7)
H45H H 0.08000 0.67000 0.96940
H45D H -0.33000 0.96940 1.08000
C53H C 0.0535(8) 0.7075(7) 0.9044(7)
C53D C -0.2925(8) 0.9044(7) 1.0535(7)
H46H H 0.07400 0.69070 0.87970
H46D H -0.30930 0.87970 1.07400
C54H C 0.0132(7) 0.7440(7) 0.8896(7)
C54D C -0.2560(7) 0.8896(7) 1.0132(7)
H47H H 0.00330 0.74700 0.85490
H47D H -0.25300 0.85490 1.00330
#END

data_CSD_CIF_PAJTAY
_audit_creation_date 2017-02-01
_audit_creation_method CSD-ConQuest-V1
_database_code_CSD PAJTAY
_database_code_depnum_ccdc_archive 'CCDC 1429144'
_chemical_formula_sum 'C18 H18 Br2 Co1 N4'
_chemical_formula_moiety
;
C18 H18 Br1 Co1 N4 1+,Br1 1-
;
_journal_coden_Cambridge 4
_journal_volume 138
_journal_year 2016
_journal_page_first 16407
_journal_name_full 'J.Am.Chem.Soc. '
loop_
_publ_author_name
"T.J.Woods"
"M.F.Ballesteros-Rivas"
"S.Gomez-Coca"
"E.Ruiz"
"K.R.Dunbar"
_chemical_name_systematic
;
bromo-{tris(2-pyridylmethyl)amine}-cobalt bromide
;
_cell_volume   2012.785
_exptl_crystal_colour 'green'
_exptl_crystal_density_diffrn 1.68
_exptl_crystal_description 'plate'
_diffrn_ambient_temperature 110
#These two values have been output from a single CSD field.
_refine_ls_R_factor_gt 0.0279
_refine_ls_wR_factor_gt 0.0279
_symmetry_cell_setting cubic
_symmetry_space_group_name_H-M 'P 21 3'
_symmetry_Int_Tables_number 198
loop_
_symmetry_equiv_pos_site_id
_symmetry_equiv_pos_as_xyz
1 x,y,z
2 1/2-x,-y,1/2+z
3 -x,1/2+y,1/2-z
4 1/2+x,1/2-y,-z
5 z,x,y
6 1/2+z,1/2-x,-y
7 1/2-z,-x,1/2+y
8 -z,1/2+x,1/2-y
9 y,z,x
10 -y,1/2+z,1/2-x
11 1/2+y,1/2-z,-x
12 1/2-y,-z,1/2+x
_cell_length_a 12.626(4)
_cell_length_b 12.626(4)
_cell_length_c 12.626(4)
_cell_angle_alpha 90
_cell_angle_beta 90
_cell_angle_gamma 90
_cell_formula_units_Z 4
loop_
_atom_type_symbol
_atom_type_radius_bond
C 0.68
H 0.23
Br 1.21
Co 1.26
N 0.68
loop_
_atom_site_label
_atom_site_type_symbol
_atom_site_fract_x
_atom_site_fract_y
_atom_site_fract_z
Br1 Br 0.19838(4) 0.19838(4) 0.19838(4)
N1 N 0.4106(3) 0.4106(3) 0.4106(3)
C1 C 0.4738(4) 0.3388(4) 0.4769(4)
H1 H 0.50060 0.37750 0.53970
H2 H 0.53540 0.31260 0.43620
Co1 Co 0.30939(5) 0.30939(5) 0.30939(5)
N2 N 0.3319(3) 0.2164(3) 0.4423(3)
C2 C 0.4072(4) 0.2471(4) 0.5120(4)
C3 C 0.3601(5) 0.1077(5) 0.6311(4)
H3 H 0.36890 0.07100 0.69620
C4 C 0.4222(4) 0.1945(4) 0.6075(4)
H4 H 0.47480 0.21790 0.65600
C5 C 0.2845(4) 0.0748(4) 0.5585(4)
H5 H 0.24160 0.01460 0.57260
C6 C 0.2725(4) 0.1310(4) 0.4656(4)
H6 H 0.22040 0.10850 0.41610
Br2 Br 0.58493(4) 0.58493(4) 0.58493(4)
C1D C 0.4769(4) 0.4738(4) 0.3388(4)
H1D H 0.53970 0.50060 0.37750
H2D H 0.43620 0.53540 0.31260
N2D N 0.4423(3) 0.3319(3) 0.2164(3)
C2D C 0.5120(4) 0.4072(4) 0.2471(4)
C3D C 0.6311(5) 0.3601(5) 0.1077(4)
H3D H 0.69620 0.36890 0.07100
C4D C 0.6075(4) 0.4222(4) 0.1945(4)
H4D H 0.65600 0.47480 0.21790
C5D C 0.5585(4) 0.2845(4) 0.0748(4)
H5D H 0.57260 0.24160 0.01460
C6D C 0.4656(4) 0.2725(4) 0.1310(4)
H6D H 0.41610 0.22040 0.10850
C1H C 0.3388(4) 0.4769(4) 0.4738(4)
H1H H 0.37750 0.53970 0.50060
H2H H 0.31260 0.43620 0.53540
N2H N 0.2164(3) 0.4423(3) 0.3319(3)
C2H C 0.2471(4) 0.5120(4) 0.4072(4)
C3H C 0.1077(5) 0.6311(5) 0.3601(4)
H3H H 0.07100 0.69620 0.36890
C4H C 0.1945(4) 0.6075(4) 0.4222(4)
H4H H 0.21790 0.65600 0.47480
C5H C 0.0748(4) 0.5585(4) 0.2845(4)
H5H H 0.01460 0.57260 0.24160
C6H C 0.1310(4) 0.4656(4) 0.2725(4)
H6H H 0.10850 0.41610 0.22040
#END

data_CSD_CIF_PEMMEB
_audit_creation_date 2013-03-18
_audit_creation_method CSD-ConQuest-V1
_database_code_CSD PEMMEB
_database_code_depnum_ccdc_archive 'CCDC 882124'
_chemical_formula_sum 'C57 H63 F12 Mn1 N8 P2'
_chemical_formula_moiety
;
C39 H45 Mn1 N8 2+,2(F6 P1 1-),3(C6 H6)
;
_journal_coden_Cambridge 4
_journal_volume 134
_journal_year 2012
_journal_page_first 15538
_journal_name_full 'J.Am.Chem.Soc. '
loop_
_publ_author_name
"H.Kropp"
"A.E.King"
"M.M.Khusniyarov"
"F.W.Heinemann"
"K.M.Lancaster"
"S.DeBeer"
"E.Bill"
"K.Meyer"
_chemical_name_systematic
;
tris(2-((3-(2,6-dimethylphenyl)imidazol-2-yliden-1-yl)ethyl)amine)-nitrido-man
ganese(v) bis(hexafluorophosphate) benzene solvate
;
_cell_volume   5826.850
_exptl_crystal_colour 'orange'
_exptl_crystal_density_diffrn 1.374
_exptl_special_details
;
Absolute configuration

;
_exptl_crystal_description 'prism'
_diffrn_ambient_temperature 100
#These two values have been output from a single CSD field.
_refine_ls_R_factor_gt 0.0391
_refine_ls_wR_factor_gt 0.0391
_symmetry_cell_setting cubic
_symmetry_space_group_name_H-M 'P 21 3'
_symmetry_Int_Tables_number 198
loop_
_symmetry_equiv_pos_site_id
_symmetry_equiv_pos_as_xyz
1 x,y,z
2 z,x,y
3 y,z,x
4 1/2-y,-z,1/2+x
5 1/2+z,1/2-x,-y
6 -y,1/2+z,1/2-x
7 1/2-z,-x,1/2+y
8 -z,1/2+x,1/2-y
9 1/2+y,1/2-z,-x
10 1/2+x,1/2-y,-z
11 -x,1/2+y,1/2-z
12 1/2-x,-y,1/2+z
_cell_length_a 17.9947(18)
_cell_length_b 17.9947(18)
_cell_length_c 17.9947(18)
_cell_angle_alpha 90
_cell_angle_beta 90
_cell_angle_gamma 90
_cell_formula_units_Z 4
loop_
_atom_type_symbol
_atom_type_radius_bond
C 0.68
H 0.23
F 0.64
Mn 1.30
N 0.68
P 1.05
loop_
_atom_site_label
_atom_site_type_symbol
_atom_site_fract_x
_atom_site_fract_y
_atom_site_fract_z
Mn1 Mn 0.247180(17) 0.752820(17) 0.252820(17)
N1 N 0.16863(10) 0.83137(10) 0.33137(10)
N2 N 0.24499(11) 0.91108(10) 0.19534(9)
N3 N 0.35341(10) 0.86652(10) 0.1778(1)
N4 N 0.29679(11) 0.70321(11) 0.20321(11)
C1 C 0.17132(13) 0.91138(12) 0.30940(12)
H1 H 0.21700 0.93400 0.33010
H2 H 0.12820 0.93740 0.33150
C2 C 0.17054(13) 0.92296(13) 0.22630(12)
H3 H 0.13510 0.88780 0.20310
H4 H 0.15380 0.97410 0.21500
C3 C 0.28698(12) 0.85057(13) 0.20931(12)
C4 C 0.28391(14) 0.96351(13) 0.15565(13)
H5 H 0.26590 1.01030 0.13900
C5 C 0.35208(14) 0.93585(13) 0.14507(14)
H6 H 0.39200 0.95950 0.11980
C6 C 0.42073(12) 0.82244(13) 0.18116(13)
C7 C 0.46685(12) 0.83116(13) 0.24252(14)
C8 C 0.53464(14) 0.79413(14) 0.24237(17)
H7 H 0.56720 0.79900 0.28360
C9 C 0.55481(14) 0.75070(17) 0.18313(16)
H8 H 0.60150 0.72600 0.18340
C10 C 0.50775(15) 0.74257(16) 0.12317(15)
H9 H 0.52220 0.71140 0.08310
C11 C 0.43930(14) 0.77912(14) 0.12003(14)
C12 C 0.44513(15) 0.87864(16) 0.30767(14)
H10 H 0.48940 0.89050 0.33710
H11 H 0.40940 0.85170 0.33870
H12 H 0.42240 0.92480 0.28970
C13 C 0.38822(15) 0.77064(15) 0.05479(14)
H13 H 0.33990 0.75230 0.07190
H14 H 0.40970 0.73520 0.01940
H15 H 0.38170 0.81890 0.03040
P1 P 0.09084(4) 0.09084(4) 0.09084(4)
F1 F 0.08622(8) 0.09656(8) 0.00289(7)
F2 F 0.09677(8) 0.08636(8) 0.18001(7)
P2 P 0.01276(3) 0.98724(3) 0.48724(3)
F3 F 0.03360(7) 1.00406(8) 0.40243(7)
F4 F -0.00711(8) 0.97070(8) 0.57208(7)
C14 C 0.33806(18) 0.04702(17) 0.3843(2)
H16 H 0.38570 0.02770 0.39630
C15 C 0.32466(19) 0.07686(18) 0.3152(2)
H17 H 0.36300 0.07780 0.27890
C16 C 0.2554(2) 0.10531(15) 0.29879(16)
H18 H 0.24600 0.12620 0.25130
C17 C 0.20063(16) 0.10328(15) 0.35107(19)
H19 H 0.15290 0.12270 0.33980
C18 C 0.21404(18) 0.07358(16) 0.41925(17)
H20 H 0.17560 0.07250 0.45550
C19 C 0.2818(2) 0.04558(16) 0.43572(17)
H21 H 0.29060 0.02470 0.48340
N2E N 0.08892(11) 0.69534(10) 0.25501(9)
N2F N 0.30466(11) 0.75501(10) 0.41108(9)
N3F N 0.3222(1) 0.64659(10) 0.36652(10)
N3E N 0.13348(10) 0.6778(1) 0.14659(10)
C1E C 0.08862(13) 0.80940(12) 0.32868(12)
C1F C 0.19060(13) 0.82868(12) 0.41138(12)
H1F H 0.16990 0.78300 0.43400
H1E H 0.06600 0.83010 0.28300
H2F H 0.16850 0.87180 0.43740
H2E H 0.06260 0.83150 0.37180
C2E C 0.07704(13) 0.72630(13) 0.32946(12)
C2F C 0.27370(13) 0.82946(13) 0.42296(12)
H3F H 0.29690 0.86490 0.38780
H3E H 0.11220 0.70310 0.36490
H4F H 0.28500 0.84620 0.47410
H4E H 0.02590 0.71500 0.34620
C3E C 0.14943(12) 0.70931(13) 0.21302(12)
C3F C 0.29069(12) 0.71302(13) 0.35057(12)
C4F C 0.34435(14) 0.71609(13) 0.46351(13)
C4E C 0.03649(14) 0.65565(13) 0.21609(13)
H5F H 0.36100 0.73410 0.51030
H5E H -0.01030 0.63900 0.23410
C5F C 0.35493(14) 0.64792(13) 0.43585(14)
C5E C 0.06415(14) 0.64507(13) 0.14792(14)
H6F H 0.38020 0.60800 0.45950
H6E H 0.04050 0.61980 0.10800
C6F C 0.31884(12) 0.57927(13) 0.32244(13)
C6E C 0.17756(12) 0.68116(13) 0.07927(13)
C7F C 0.25748(12) 0.53315(13) 0.33116(14)
C7E C 0.16884(12) 0.74252(13) 0.03315(14)
C8F C 0.25763(14) 0.46536(14) 0.29413(17)
C8E C 0.20587(14) 0.74237(14) -0.03464(17)
H7F H 0.21640 0.43280 0.29900
H7E H 0.20100 0.78360 -0.06720
C9F C 0.31687(14) 0.44519(17) 0.25070(16)
C9E C 0.24930(14) 0.68313(17) -0.05481(16)
H8F H 0.31660 0.39850 0.22600
H8E H 0.27400 0.68340 -0.10150
C10F C 0.37683(15) 0.49225(16) 0.24257(15)
C10E C 0.25743(15) 0.62317(16) -0.00775(15)
H9F H 0.41690 0.47780 0.21140
H9E H 0.28860 0.58310 -0.02220
C11F C 0.37997(14) 0.56070(14) 0.27912(14)
C11E C 0.22088(14) 0.62003(14) 0.06070(14)
C12F C 0.19233(15) 0.55487(16) 0.37864(14)
C12E C 0.12136(15) 0.80767(16) 0.05487(14)
H10F H 0.16290 0.51060 0.39050
H10E H 0.10950 0.83710 0.01060
H11F H 0.16130 0.59060 0.35170
H11E H 0.14830 0.83870 0.09060
H12F H 0.21030 0.57760 0.42480
H12E H 0.07520 0.78970 0.07760
C13F C 0.44521(15) 0.61178(15) 0.27064(14)
C13E C 0.22936(15) 0.55479(15) 0.11178(14)
H13F H 0.42810 0.66010 0.25230
H13E H 0.24770 0.57190 0.16010
H14F H 0.48060 0.59030 0.23520
H14E H 0.26480 0.51940 0.09030
H15F H 0.46960 0.61830 0.31890
H15E H 0.18110 0.53040 0.11830
F1A F 0.00289(8) 0.08622(8) 0.09656(7)
F1B F 0.09656(8) 0.00289(8) 0.08622(7)
F2A F 0.18001(8) 0.09677(8) 0.08636(7)
F2B F 0.08636(8) 0.18001(8) 0.09677(7)
F3E F -0.00406(7) 0.90243(8) 0.46640(7)
F3F F 0.09757(7) 0.96640(8) 0.50406(7)
F4E F 0.02930(8) 1.07208(8) 0.50711(7)
F4F F -0.07208(8) 1.00711(8) 0.47070(7)
#END

data_CSD_CIF_POHCOE
_audit_creation_date 1995-03-22
_audit_creation_method CSD-ConQuest-V1
_database_code_CSD POHCOE
_chemical_formula_sum 'C6 H18 Br1 O1 Sb3'
_chemical_formula_moiety
;
C6 H18 O1 Sb3 1+,Br1 1-
;
_journal_coden_Cambridge 580
_journal_volume 13
_journal_year 1994
_journal_page_first 2471
_journal_name_full 'Polyhedron '
loop_
_publ_author_name
"H.J.Breunig"
"M.A.Mohammed"
"K.H.Ebert"
_chemical_name_systematic
;
tris(Dimethyl-antimonyl)oxonium bromide
;
_cell_volume   1391.798
_exptl_crystal_colour 'yellow'
_exptl_crystal_density_diffrn 2.631
_exptl_special_details
;
Slightly air-sensitive

;
_diffrn_ambient_temperature 173
#These two values have been output from a single CSD field.
_refine_ls_R_factor_gt 0.0226
_refine_ls_wR_factor_gt 0.0226
_symmetry_cell_setting cubic
_symmetry_space_group_name_H-M 'P 21 3'
_symmetry_Int_Tables_number 198
loop_
_symmetry_equiv_pos_site_id
_symmetry_equiv_pos_as_xyz
1 x,y,z
2 z,x,y
3 y,z,x
4 1/2+x,1/2-y,-z
5 1/2+z,1/2-x,-y
6 1/2+y,1/2-z,-x
7 -x,1/2+y,1/2-z
8 -z,1/2+x,1/2-y
9 -y,1/2+z,1/2-x
10 1/2-x,-y,1/2+z
11 1/2-z,-x,1/2+y
12 1/2-y,-z,1/2+x
_cell_length_a 11.165(2)
_cell_length_b 11.165(2)
_cell_length_c 11.165(2)
_cell_angle_alpha 90
_cell_angle_beta 90
_cell_angle_gamma 90
_cell_formula_units_Z 4
loop_
_atom_type_symbol
_atom_type_radius_bond
C 0.68
H 0.23
Br 1.21
O 0.68
Sb 1.46
loop_
_atom_site_label
_atom_site_type_symbol
_atom_site_fract_x
_atom_site_fract_y
_atom_site_fract_z
Sb1 Sb 0.3761(1) 0.3364(1) 0.5856(1)
C1 C 0.3920(6) 0.1671(6) 0.4986(7)
C2 C 0.5538(6) 0.3441(7) 0.6582(6)
Br1 Br 0.6839(1) 0.6839(1) 0.6839(1)
O1 O 0.4288(4) 0.4288(4) 0.4288(4)
H1 H 0.37160 0.10450 0.55380
H2 H 0.47280 0.15630 0.47150
H3 H 0.33860 0.16450 0.43120
H4 H 0.55510 0.30560 0.73510
H5 H 0.57770 0.42620 0.66690
H6 H 0.60820 0.30390 0.60510
Sb1A Sb 0.5856(1) 0.3761(1) 0.3364(1)
Sb1B Sb 0.3364(1) 0.5856(1) 0.3761(1)
C1A C 0.4986(6) 0.3920(6) 0.1671(7)
C2A C 0.6582(6) 0.5538(7) 0.3441(6)
C1B C 0.1671(6) 0.4986(6) 0.3920(7)
C2B C 0.3441(6) 0.6582(7) 0.5538(6)
H1A H 0.55380 0.37160 0.10450
H2A H 0.47150 0.47280 0.15630
H3A H 0.43120 0.33860 0.16450
H4A H 0.73510 0.55510 0.30560
H5A H 0.66690 0.57770 0.42620
H6A H 0.60510 0.60820 0.30390
H1B H 0.10450 0.55380 0.37160
H2B H 0.15630 0.47150 0.47280
H3B H 0.16450 0.43120 0.33860
H4B H 0.30560 0.73510 0.55510
H5B H 0.42620 0.66690 0.57770
H6B H 0.30390 0.60510 0.60820
#END

data_CSD_CIF_PULTOH
_audit_creation_date 2015-08-20
_audit_creation_method CSD-ConQuest-V1
_database_code_CSD PULTOH
_database_code_depnum_ccdc_archive 'CCDC 1409126'
_chemical_formula_sum 'C6 H6 F18 N3 Nd1 O15 S6'
_chemical_formula_moiety
;
C6 H6 F18 N3 Nd1 O15 S6
;
_journal_coden_Cambridge 1350
_journal_volume 17
_journal_year 2015
_journal_page_first 7142
_journal_name_full 'CrystEngComm '
loop_
_publ_author_name
"T.V.Hoogerstraete"
"N.R.Brooks"
"Bieke Onghena"
"L.Van Meervelt"
"K.Binnemans"
_chemical_name_systematic
;
Triaqua-tris(bis(trifluoromethylsulfonyl)imide-O,O')-neodymium(iii)
;
_cell_volume   6300.361
_exptl_crystal_colour 'colorless'
_exptl_crystal_density_diffrn 2.19
_exptl_special_details
;
Absolute configuration
Hygroscopic

;
_exptl_crystal_description 'block'
_exptl_crystal_preparation 'water'
_diffrn_ambient_temperature 100
#These two values have been output from a single CSD field.
_refine_ls_R_factor_gt 0.0439
_refine_ls_wR_factor_gt 0.0439
_symmetry_cell_setting cubic
_symmetry_space_group_name_H-M 'P 21 3'
_symmetry_Int_Tables_number 198
loop_
_symmetry_equiv_pos_site_id
_symmetry_equiv_pos_as_xyz
1 x,y,z
2 1/2-x,-y,1/2+z
3 1/2+x,1/2-y,-z
4 -x,1/2+y,1/2-z
5 z,x,y
6 y,z,x
7 1/2-z,-x,1/2+y
8 -y,1/2+z,1/2-x
9 1/2+z,1/2-x,-y
10 1/2-y,-z,1/2+x
11 -z,1/2+x,1/2-y
12 1/2+y,1/2-z,-x
_cell_length_a 18.4695(2)
_cell_length_b 18.4695(2)
_cell_length_c 18.4695(2)
_cell_angle_alpha 90
_cell_angle_beta 90
_cell_angle_gamma 90
_cell_formula_units_Z 8
loop_
_atom_type_symbol
_atom_type_radius_bond
C 0.68
H 0.23
F 0.64
N 0.68
Nd 2.01
O 0.68
S 1.02
loop_
_atom_site_label
_atom_site_type_symbol
_atom_site_fract_x
_atom_site_fract_y
_atom_site_fract_z
Nd1 Nd 0.484015(15) 0.984015(15) 0.515985(15)
O1 O 0.4721(3) 1.1020(2) 0.4600(2)
C1 C 0.4142(5) 0.7253(4) 0.4737(4)
F1 F 0.4320(5) 0.7419(3) 0.4078(3)
F2 F 0.4342(3) 0.6571(2) 0.4882(3)
F3 F 0.3434(3) 0.7310(3) 0.4814(3)
S1 S 0.45652(9) 0.78633(9) 0.53788(9)
O2 O 0.4378(2) 0.8579(2) 0.5126(3)
O3 O 0.4289(4) 0.7644(3) 0.6057(3)
N1 N 0.5379(4) 0.7677(4) 0.5244(7)
S2 S 0.60141(9) 0.81871(9) 0.51719(11)
O4 O 0.6436(4) 0.8021(4) 0.4557(4)
O5 O 0.5843(2) 0.8939(2) 0.5276(2)
C2 C 0.6595(5) 0.7967(5) 0.5949(5)
F4 F 0.6758(3) 0.7272(3) 0.5931(4)
F5 F 0.7186(3) 0.8346(3) 0.5902(4)
F6 F 0.6242(5) 0.8100(5) 0.6547(4)
H1 H 0.480(5) 1.110(4) 0.4158(14)
H2 H 0.441(4) 1.132(4) 0.474(4)
Nd2 Nd 0.229748(16) 0.729748(16) 0.770252(16)
O6 O 0.3535(2) 0.7245(2) 0.7279(2)
C3 C 0.3233(4) 0.5516(4) 0.6066(4)
F7 F 0.3082(3) 0.5841(3) 0.5450(2)
F8 F 0.3785(2) 0.5862(2) 0.6385(2)
F9 F 0.3431(2) 0.4841(2) 0.5938(2)
S3 S 0.24296(8) 0.55393(8) 0.66430(8)
O7 O 0.2305(2) 0.6299(2) 0.6772(2)
O8 O 0.1893(2) 0.5160(3) 0.6237(3)
N2 N 0.2703(3) 0.5107(3) 0.7316(3)
S4 S 0.25463(8) 0.53087(7) 0.81195(8)
O9 O 0.2408(2) 0.6070(2) 0.8240(2)
O10 O 0.3049(2) 0.4972(2) 0.8591(2)
C4 C 0.1675(4) 0.4878(4) 0.8305(3)
F10 F 0.1182(2) 0.5108(2) 0.7834(2)
F11 F 0.1456(2) 0.5040(3) 0.8970(2)
F12 F 0.1732(2) 0.4166(2) 0.8247(3)
H3 H 0.383(3) 0.704(5) 0.755(3)
H4 H 0.375(3) 0.734(4) 0.689(2)
O1J O 0.5400(3) 0.9721(2) 0.3980(2)
C1J C 0.5263(5) 0.9142(4) 0.7747(4)
F1J F 0.5922(5) 0.9320(3) 0.7581(3)
F2J F 0.5118(3) 0.9342(2) 0.8429(3)
F3J F 0.5186(3) 0.8434(3) 0.7690(3)
S1J S 0.46212(9) 0.95652(9) 0.71367(9)
O2J O 0.4874(2) 0.9378(2) 0.6421(3)
O3J O 0.3943(4) 0.9289(3) 0.7356(3)
N1J N 0.4756(4) 1.0379(4) 0.7323(7)
S2J S 0.48281(9) 1.10141(9) 0.68129(11)
O4J O 0.5443(4) 1.1436(4) 0.6979(4)
O5J O 0.4724(2) 1.0843(2) 0.6061(2)
C2J C 0.4051(5) 1.1595(5) 0.7033(5)
F4J F 0.4069(3) 1.1758(3) 0.7728(4)
F5J F 0.4098(3) 1.2186(3) 0.6654(4)
F6J F 0.3453(5) 1.1242(5) 0.6900(4)
H1J H 0.5842(50) 0.980(4) 0.3900(14)
H2J H 0.526(4) 0.941(4) 0.368(4)
O1K O 0.6020(3) 1.0400(2) 0.5279(2)
C1K C 0.2253(5) 1.0263(4) 0.5858(4)
F1K F 0.2419(5) 1.0922(3) 0.5680(3)
F2K F 0.1571(3) 1.0118(2) 0.5658(3)
F3K F 0.2310(3) 1.0186(3) 0.6566(3)
S1K S 0.28633(9) 0.96212(9) 0.54348(9)
O2K O 0.3579(2) 0.9874(2) 0.5622(3)
O3K O 0.2644(4) 0.8943(3) 0.5711(3)
N1K N 0.2677(4) 0.9756(4) 0.4621(7)
S2K S 0.31871(9) 0.98281(9) 0.39859(11)
O4K O 0.3021(4) 1.0443(4) 0.3564(4)
O5K O 0.3939(2) 0.9724(2) 0.4157(2)
C2K C 0.2967(5) 0.9051(5) 0.3405(5)
F4K F 0.2272(3) 0.9069(3) 0.3242(4)
F5K F 0.3346(3) 0.9098(3) 0.2814(4)
F6K F 0.3100(5) 0.8453(5) 0.3758(4)
H1K H 0.610(5) 1.0842(40) 0.5200(14)
H2K H 0.632(4) 1.026(4) 0.559(4)
O6J O 0.2721(2) 0.8535(2) 0.7755(2)
C3J C 0.3934(4) 0.8233(4) 0.9484(4)
F7J F 0.4550(3) 0.8082(3) 0.9159(2)
F8J F 0.3615(2) 0.8785(2) 0.9138(2)
F9J F 0.4062(2) 0.8431(2) 1.0159(2)
S3J S 0.33570(8) 0.74296(8) 0.94607(8)
O7J O 0.3228(2) 0.7305(2) 0.8701(2)
O8J O 0.3763(2) 0.6893(3) 0.9840(3)
N2J N 0.2684(3) 0.7703(3) 0.9893(3)
S4J S 0.18805(8) 0.75463(7) 0.96913(8)
O9J O 0.1760(2) 0.7408(2) 0.8930(2)
O10J O 0.1409(2) 0.8049(2) 1.0028(2)
C4J C 0.1695(4) 0.6675(4) 1.0122(3)
F10J F 0.2166(2) 0.6182(2) 0.9892(2)
F11J F 0.1030(2) 0.6456(3) 0.9960(2)
F12J F 0.1753(2) 0.6732(2) 1.0834(3)
H3J H 0.245(3) 0.883(5) 0.796(3)
H4J H 0.311(3) 0.875(4) 0.766(2)
O6K O 0.2245(2) 0.7721(2) 0.6465(2)
C3K C 0.0516(4) 0.8934(4) 0.6767(4)
F7K F 0.0841(3) 0.9550(3) 0.6918(2)
F8K F 0.0862(2) 0.8615(2) 0.6215(2)
F9K F -0.0159(2) 0.9062(2) 0.6569(2)
S3K S 0.05393(8) 0.83570(8) 0.75704(8)
O7K O 0.1299(2) 0.8228(2) 0.7695(2)
O8K O 0.0160(2) 0.8763(3) 0.8107(3)
N2K N 0.0107(3) 0.7684(3) 0.7297(3)
S4K S 0.03087(8) 0.68805(7) 0.74537(8)
O9K O 0.1070(2) 0.6760(2) 0.7592(2)
O10K O -0.0028(2) 0.6409(2) 0.6951(2)
C4K C -0.0122(4) 0.6695(4) 0.8325(3)
F10K F 0.0108(2) 0.7166(2) 0.8818(2)
F11K F 0.0040(2) 0.6030(3) 0.8544(2)
F12K F -0.0834(2) 0.6753(2) 0.8268(3)
H3K H 0.204(3) 0.745(5) 0.617(3)
H4K H 0.234(3) 0.811(4) 0.625(2)
#END

data_CSD_CIF_PULVEZ
_audit_creation_date 2015-08-20
_audit_creation_method CSD-ConQuest-V1
_database_code_CSD PULVEZ
_database_code_depnum_ccdc_archive 'CCDC 1409129'
_chemical_formula_sum 'C6 H6 F18 Gd1 N3 O15 S6'
_chemical_formula_moiety
;
C6 H6 F18 Gd1 N3 O15 S6
;
_journal_coden_Cambridge 1350
_journal_volume 17
_journal_year 2015
_journal_page_first 7142
_journal_name_full 'CrystEngComm '
loop_
_publ_author_name
"T.V.Hoogerstraete"
"N.R.Brooks"
"Bieke Onghena"
"L.Van Meervelt"
"K.Binnemans"
_chemical_name_systematic
;
Triaqua-tris(bis(trifluoromethylsulfonyl)imide-O,O')-gadolinium(iii)
;
_cell_volume   6226.762
_exptl_crystal_colour 'colorless'
_exptl_crystal_density_diffrn 2.244
_exptl_special_details
;
Absolute configuration
Hygroscopic

;
_exptl_crystal_description 'block'
_exptl_crystal_preparation 'water'
_diffrn_ambient_temperature 100
#These two values have been output from a single CSD field.
_refine_ls_R_factor_gt 0.0184
_refine_ls_wR_factor_gt 0.0184
_symmetry_cell_setting cubic
_symmetry_space_group_name_H-M 'P 21 3'
_symmetry_Int_Tables_number 198
loop_
_symmetry_equiv_pos_site_id
_symmetry_equiv_pos_as_xyz
1 x,y,z
2 z,x,y
3 y,z,x
4 1/2-y,-z,1/2+x
5 1/2+z,1/2-x,-y
6 -y,1/2+z,1/2-x
7 1/2-z,-x,1/2+y
8 -z,1/2+x,1/2-y
9 1/2+y,1/2-z,-x
10 1/2-x,-y,1/2+z
11 1/2+x,1/2-y,-z
12 -x,1/2+y,1/2-z
_cell_length_a 18.3973(2)
_cell_length_b 18.3973(2)
_cell_length_c 18.3973(2)
_cell_angle_alpha 90
_cell_angle_beta 90
_cell_angle_gamma 90
_cell_formula_units_Z 8
loop_
_atom_type_symbol
_atom_type_radius_bond
C 0.68
H 0.23
F 0.64
Gd 1.96
N 0.68
O 0.68
S 1.02
loop_
_atom_site_label
_atom_site_type_symbol
_atom_site_fract_x
_atom_site_fract_y
_atom_site_fract_z
Gd1 Gd 0.765914(6) 0.734086(6) 0.265914(6)
O1 O 0.77888(11) 0.78961(9) 0.15077(10)
H1 H 0.773(2) 0.8348(7) 0.1445(19)
H2 H 0.8055(17) 0.7767(17) 0.1164(14)
C1 C 0.8332(2) 0.77584(17) 0.52383(17)
F1 F 0.90431(13) 0.77345(14) 0.51766(12)
F2 F 0.8101(2) 0.84094(11) 0.50764(12)
F3 F 0.81442(13) 0.75982(13) 0.59174(9)
S1 S 0.79445(4) 0.70967(4) 0.46177(3)
O2 O 0.81158(9) 0.73811(10) 0.39040(9)
O3 O 0.82723(16) 0.64333(11) 0.48194(13)
N1 N 0.71330(15) 0.7134(3) 0.48144(16)
S2 S 0.64920(4) 0.73080(4) 0.43009(3)
O4 O 0.66584(10) 0.72143(10) 0.3545(1)
O5 O 0.61161(17) 0.79469(15) 0.44997(15)
C2 C 0.5864(2) 0.6562(2) 0.45092(19)
F4 F 0.61559(18) 0.59379(13) 0.43358(18)
F5 F 0.52710(12) 0.66564(16) 0.41185(12)
F6 F 0.57012(13) 0.65685(15) 0.52044(12)
Gd2 Gd 0.478508(6) 0.521492(6) 0.021492(6)
O6 O 0.47166(11) 0.40039(9) -0.02116(10)
H3 H 0.4866(16) 0.3819(15) -0.0597(10)
H4 H 0.4523(19) 0.3682(14) 0.0041(15)
C3 C 0.41575(15) 0.58109(15) 0.26224(16)
F7 F 0.36685(8) 0.53305(10) 0.23893(9)
F8 F 0.42191(10) 0.57515(11) 0.33310(9)
F9 F 0.39339(10) 0.64689(10) 0.24545(11)
S3 S 0.50332(3) 0.56237(3) 0.21841(3)
O7 O 0.48932(10) 0.57430(9) 0.14191(9)
O8 O 0.55384(10) 0.61029(10) 0.25254(10)
N2 N 0.51940(11) 0.48176(11) 0.23929(11)
S4 S 0.49204(3) 0.41416(3) 0.19547(3)
O9 O 0.47849(11) 0.42800(9) 0.11954(9)
O10 O 0.43898(10) 0.3726(1) 0.23371(11)
C4 C 0.57381(15) 0.35708(15) 0.19684(15)
F10 F 0.62801(9) 0.38913(11) 0.16273(10)
F11 F 0.55790(11) 0.29538(10) 0.16410(12)
F12 F 0.59361(9) 0.34316(9) 0.2641(1)
O1C O 0.71039(11) 0.84923(9) 0.27888(10)
H1C H 0.6652(20) 0.8555(7) 0.2730(19)
H2C H 0.7233(17) 0.8836(17) 0.3055(14)
C1C C 0.72416(20) 0.47617(17) 0.33320(17)
F1C F 0.72655(13) 0.48234(14) 0.40431(12)
F2C F 0.65906(20) 0.49236(11) 0.31010(12)
F3C F 0.74018(13) 0.40826(13) 0.31442(9)
S1C S 0.79033(4) 0.53823(4) 0.29445(3)
O2C O 0.76189(9) 0.6096(1) 0.31158(9)
O3C O 0.85667(16) 0.51806(11) 0.32723(13)
N1C N 0.78660(15) 0.51856(30) 0.21330(16)
S2C S 0.76920(4) 0.56991(4) 0.14920(3)
O4C O 0.77857(10) 0.6455(1) 0.16584(10)
O5C O 0.70531(17) 0.55003(15) 0.11161(15)
C2C C 0.8438(2) 0.54908(20) 0.08640(19)
F4C F 0.90621(18) 0.56642(13) 0.11559(18)
F5C F 0.83436(12) 0.58815(16) 0.02710(12)
F6C F 0.84315(13) 0.47956(15) 0.07012(12)
O1D O 0.65077(11) 0.72112(9) 0.21039(10)
H1D H 0.6445(20) 0.7270(7) 0.1652(19)
H2D H 0.6164(17) 0.6945(17) 0.2233(14)
C1D C 1.02383(20) 0.66680(17) 0.22416(17)
F1D F 1.01766(13) 0.59569(14) 0.22655(12)
F2D F 1.00764(20) 0.68990(11) 0.15906(12)
F3D F 1.09174(13) 0.68558(13) 0.24018(9)
S1D S 0.96177(4) 0.70555(4) 0.29033(3)
O2D O 0.89040(9) 0.68842(10) 0.26189(9)
O3D O 0.98194(16) 0.67277(11) 0.35667(13)
N1D N 0.98144(15) 0.7867(3) 0.28660(16)
S2D S 0.93009(4) 0.85080(4) 0.26920(3)
O4D O 0.8545(1) 0.83416(10) 0.27857(10)
O5D O 0.94997(17) 0.88839(15) 0.20531(15)
C2D C 0.95092(20) 0.9136(2) 0.34380(19)
F4D F 0.93358(18) 0.88441(13) 0.40621(18)
F5D F 0.91185(12) 0.97290(16) 0.33436(12)
F6D F 1.02044(13) 0.92988(15) 0.34315(12)
O6E O 0.59961(11) 0.47884(9) 0.02834(10)
H3E H 0.6181(16) 0.4403(15) 0.0134(10)
H4E H 0.6318(19) 0.5041(14) 0.0477(15)
C3E C 0.41891(15) 0.76224(15) 0.08425(16)
F7E F 0.46695(8) 0.73893(10) 0.13315(9)
F8E F 0.42485(10) 0.83310(11) 0.07809(9)
F9E F 0.35311(10) 0.74545(10) 0.10661(11)
S3E S 0.43763(3) 0.71841(3) -0.00332(3)
O7E O 0.4257(1) 0.64191(9) 0.01068(9)
O8E O 0.38971(10) 0.75254(10) -0.05384(10)
N2E N 0.51824(11) 0.73929(11) -0.01940(11)
S4E S 0.58584(3) 0.69547(3) 0.00796(3)
O9E O 0.57200(11) 0.61954(9) 0.02151(9)
O10E O 0.6274(1) 0.73371(10) 0.06102(11)
C4E C 0.64292(15) 0.69684(15) -0.07381(15)
F10E F 0.61087(9) 0.66273(11) -0.12801(10)
F11E F 0.70462(11) 0.6641(1) -0.05790(12)
F12E F 0.65684(9) 0.76410(9) -0.09361(10)
O6F O 0.52116(11) 0.52834(9) -0.09961(10)
H3F H 0.5597(16) 0.5134(15) -0.1181(10)
H4F H 0.4959(19) 0.5477(14) -0.1318(15)
C3F C 0.23776(15) 0.58425(15) 0.08109(16)
F7F F 0.26107(8) 0.63315(10) 0.03305(9)
F8F F 0.1669(1) 0.57809(11) 0.07515(9)
F9F F 0.25455(10) 0.60661(10) 0.14689(11)
S3F S 0.28159(3) 0.49668(3) 0.06237(3)
O7F O 0.35809(10) 0.51068(9) 0.07430(9)
O8F O 0.24746(10) 0.44616(10) 0.11029(10)
N2F N 0.26071(11) 0.48060(11) -0.01824(11)
S4F S 0.30453(3) 0.50796(3) -0.08584(3)
O9F O 0.38046(11) 0.52151(9) -0.07200(9)
O10F O 0.26629(10) 0.56102(10) -0.12740(11)
C4F C 0.30316(15) 0.42619(15) -0.14292(15)
F10F F 0.33727(9) 0.37199(11) -0.11087(10)
F11F F 0.33590(11) 0.4421(1) -0.20462(12)
F12F F 0.23590(9) 0.40639(9) -0.15684(10)
#END

data_CSD_CIF_PULVOJ
_audit_creation_date 2015-08-20
_audit_creation_method CSD-ConQuest-V1
_database_code_CSD PULVOJ
_database_code_depnum_ccdc_archive 'CCDC 1409131'
_chemical_formula_sum 'C6 H6 Ce1 F18 N3 O15 S6'
_chemical_formula_moiety
;
C6 H6 Ce1 F18 N3 O15 S6
;
_journal_coden_Cambridge 1350
_journal_volume 17
_journal_year 2015
_journal_page_first 7142
_journal_name_full 'CrystEngComm '
loop_
_publ_author_name
"T.V.Hoogerstraete"
"N.R.Brooks"
"Bieke Onghena"
"L.Van Meervelt"
"K.Binnemans"
_chemical_name_systematic
;
Triaqua-tris(bis(trifluoromethylsulfonyl)imide-O,O')-cerium(iii)
;
_cell_volume   6349.250
_exptl_crystal_colour 'colorless'
_exptl_crystal_density_diffrn 2.165
_exptl_special_details
;
Absolute configuration
Hygroscopic

;
_exptl_crystal_description 'block'
_exptl_crystal_preparation 'water'
_diffrn_ambient_temperature 100
#These two values have been output from a single CSD field.
_refine_ls_R_factor_gt 0.0319
_refine_ls_wR_factor_gt 0.0319
_symmetry_cell_setting cubic
_symmetry_space_group_name_H-M 'P 21 3'
_symmetry_Int_Tables_number 198
loop_
_symmetry_equiv_pos_site_id
_symmetry_equiv_pos_as_xyz
1 x,y,z
2 z,x,y
3 y,z,x
4 1/2-y,-z,1/2+x
5 1/2+z,1/2-x,-y
6 -y,1/2+z,1/2-x
7 1/2-z,-x,1/2+y
8 -z,1/2+x,1/2-y
9 1/2+y,1/2-z,-x
10 1/2-x,-y,1/2+z
11 1/2+x,1/2-y,-z
12 -x,1/2+y,1/2-z
_cell_length_a 18.51715(13)
_cell_length_b 18.51715(13)
_cell_length_c 18.51715(13)
_cell_angle_alpha 90
_cell_angle_beta 90
_cell_angle_gamma 90
_cell_formula_units_Z 8
loop_
_atom_type_symbol
_atom_type_radius_bond
C 0.68
H 0.23
Ce 2.04
F 0.64
N 0.68
O 0.68
S 1.02
loop_
_atom_site_label
_atom_site_type_symbol
_atom_site_fract_x
_atom_site_fract_y
_atom_site_fract_z
Ce1 Ce 0.484058(12) 0.984058(12) 0.515942(12)
O1 O 0.47178(19) 1.10332(17) 0.45942(17)
C1 C 0.4125(4) 0.7252(3) 0.4729(3)
F1 F 0.4279(4) 0.7423(2) 0.4071(2)
F2 F 0.4337(3) 0.65661(18) 0.4868(3)
F3 F 0.3422(2) 0.7309(2) 0.4836(2)
S1 S 0.45746(7) 0.78496(7) 0.53621(8)
O2 O 0.43668(17) 0.85654(16) 0.51309(18)
O3 O 0.4341(3) 0.7623(3) 0.6043(2)
N1 N 0.5378(3) 0.7660(3) 0.5170(5)
S2 S 0.60206(7) 0.81788(7) 0.51618(9)
O4 O 0.6461(3) 0.8021(3) 0.4557(3)
O5 O 0.58401(18) 0.89169(18) 0.52775(19)
C2 C 0.6584(5) 0.7942(4) 0.5950(5)
F4 F 0.6733(3) 0.7256(3) 0.5932(3)
F5 F 0.7164(3) 0.8327(3) 0.5950(4)
F6 F 0.6190(4) 0.8063(4) 0.6541(3)
H1 H 0.473(3) 1.111(3) 0.4145(7)
H2 H 0.444(3) 1.135(3) 0.477(2)
Ce2 Ce 0.230988(13) 0.730988(13) 0.769012(13)
O6 O 0.35641(16) 0.7266(2) 0.72629(19)
C3 C 0.3246(3) 0.5508(3) 0.6061(3)
F7 F 0.30813(19) 0.58222(19) 0.54467(17)
F8 F 0.37878(16) 0.58484(18) 0.63749(18)
F9 F 0.34351(16) 0.48322(17) 0.59357(16)
S3 S 0.24389(6) 0.55357(6) 0.66378(6)
O7 O 0.23188(18) 0.62930(16) 0.67638(16)
O8 O 0.19004(18) 0.51605(19) 0.62364(18)
N2 N 0.2714(2) 0.5109(2) 0.7309(2)
S4 S 0.25558(6) 0.53099(6) 0.81123(6)
O9 O 0.24171(17) 0.60701(16) 0.82373(16)
O10 O 0.30605(18) 0.49697(17) 0.85824(17)
C4 C 0.1686(3) 0.4876(3) 0.8301(3)
F10 F 0.11971(14) 0.51137(16) 0.78307(17)
F11 F 0.14710(18) 0.5039(2) 0.89610(17)
F12 F 0.17431(18) 0.41721(16) 0.8235(2)
H3 H 0.387(2) 0.708(3) 0.754(2)
H4 H 0.380(2) 0.743(3) 0.691(2)
O1G O 0.54058(19) 0.97178(17) 0.39668(17)
C1G C 0.5271(4) 0.9125(3) 0.7748(3)
F1G F 0.5929(4) 0.9279(2) 0.7577(2)
F2G F 0.5132(3) 0.93370(18) 0.84339(30)
F3G F 0.5164(2) 0.8422(2) 0.7691(2)
S1G S 0.46379(7) 0.95746(7) 0.71504(8)
O2G O 0.48691(17) 0.93668(16) 0.64346(18)
O3G O 0.3957(3) 0.9341(3) 0.7377(2)
N1G N 0.4830(3) 1.0378(3) 0.7340(5)
S2G S 0.48382(7) 1.10206(7) 0.68212(9)
O4G O 0.5443(3) 1.1461(3) 0.6979(3)
O5G O 0.47225(18) 1.08401(18) 0.60831(19)
C2G C 0.4050(5) 1.1584(4) 0.7058(5)
F4G F 0.4068(3) 1.1733(3) 0.7744(3)
F5G F 0.4050(3) 1.2164(3) 0.6673(4)
F6G F 0.3459(4) 1.1190(4) 0.6937(3)
H1G H 0.5855(30) 0.973(3) 0.3890(7)
H2G H 0.523(3) 0.944(3) 0.365(2)
O1H O 0.60332(19) 1.04058(17) 0.52822(17)
C1H C 0.2252(4) 1.0271(3) 0.5875(3)
F1H F 0.2423(4) 1.0929(2) 0.5721(2)
F2H F 0.15661(30) 1.01320(18) 0.5663(3)
F3H F 0.2309(2) 1.0164(2) 0.6578(2)
S1H S 0.28496(7) 0.96379(7) 0.54254(8)
O2H O 0.35654(17) 0.98691(16) 0.56332(18)
O3H O 0.2623(3) 0.8957(3) 0.5659(2)
N1H N 0.2660(3) 0.9830(3) 0.4622(5)
S2H S 0.31788(7) 0.98382(7) 0.39794(9)
O4H O 0.3021(3) 1.0443(3) 0.3539(3)
O5H O 0.39169(18) 0.97225(18) 0.41599(19)
C2H C 0.2942(5) 0.9050(4) 0.3416(5)
F4H F 0.2256(3) 0.9068(3) 0.3267(3)
F5H F 0.3327(3) 0.9050(3) 0.2836(4)
F6H F 0.3063(4) 0.8459(4) 0.3810(3)
H1H H 0.611(3) 1.0855(30) 0.5270(7)
H2H H 0.635(3) 1.023(3) 0.556(2)
O6G O 0.27371(16) 0.85641(20) 0.77340(19)
C3G C 0.3939(3) 0.8246(3) 0.9492(3)
F7G F 0.45533(19) 0.80813(19) 0.91778(17)
F8G F 0.36251(16) 0.87878(18) 0.91516(18)
F9G F 0.40643(16) 0.84351(17) 1.01678(16)
S3G S 0.33622(6) 0.74389(6) 0.94643(6)
O7G O 0.32362(18) 0.73188(16) 0.87070(16)
O8G O 0.37636(18) 0.69004(19) 0.98395(18)
N2G N 0.2691(2) 0.7714(2) 0.9891(2)
S4G S 0.18877(6) 0.75558(6) 0.96901(6)
O9G O 0.17627(17) 0.74171(16) 0.89299(16)
O10G O 0.14176(18) 0.80605(17) 1.00303(17)
C4G C 0.1699(3) 0.6686(3) 1.0124(3)
F10G F 0.21693(14) 0.61971(16) 0.98863(17)
F11G F 0.10390(18) 0.6471(2) 0.99610(17)
F12G F 0.17650(18) 0.67431(16) 1.08279(20)
H3G H 0.246(2) 0.887(3) 0.792(2)
H4G H 0.309(2) 0.880(3) 0.757(2)
O6H O 0.22660(16) 0.77371(20) 0.64359(19)
C3H C 0.0508(3) 0.8939(3) 0.6754(3)
F7H F 0.08222(19) 0.95533(19) 0.69187(17)
F8H F 0.08484(16) 0.86251(18) 0.62122(18)
F9H F -0.01678(16) 0.90643(17) 0.65649(16)
S3H S 0.05357(6) 0.83622(6) 0.75611(6)
O7H O 0.12930(18) 0.82362(16) 0.76812(16)
O8H O 0.01605(18) 0.87636(19) 0.80996(18)
N2H N 0.0109(2) 0.7691(2) 0.7286(2)
S4H S 0.03099(6) 0.68877(6) 0.74442(6)
O9H O 0.10701(17) 0.67627(16) 0.75829(16)
O10H O -0.00303(18) 0.64176(17) 0.69395(17)
C4H C -0.0124(3) 0.6699(3) 0.8314(3)
F10H F 0.01137(14) 0.71693(16) 0.88029(17)
F11H F 0.00390(18) 0.6039(2) 0.85290(17)
F12H F -0.08279(18) 0.67650(16) 0.82569(20)
H3H H 0.208(2) 0.746(3) 0.613(2)
H4H H 0.243(2) 0.809(3) 0.620(2)
#END

data_CSD_CIF_PUWPIJ
_audit_creation_date 2020-10-08
_audit_creation_method CSD-ConQuest-V1
_database_code_CSD PUWPIJ
_database_code_depnum_ccdc_archive 'CCDC 1884775'
_chemical_formula_sum 'C69 H69 Ce1 N6'
_chemical_formula_moiety
;
C69 H69 Ce1 N6
;
_journal_coden_Cambridge 9
_journal_volume 59
_journal_year 2020
_journal_page_first 15670
_journal_name_full 'Inorg.Chem. '
loop_
_publ_author_name
"R.Kloditz"
"S.Fichter"
"S.Kaufmann"
"T.S.Brunner"
"P.Kaden"
"M.Patzschke"
"T.Stumpf"
"P.W.Roesky"
"M.Schmidt"
"J.Marz"
_chemical_name_systematic
;
tris((S,S)-N,N'-bis(1-phenylethyl)benzamidinato)-cerium
;
_cell_volume   6390.124
_exptl_crystal_colour 'pale yellow'
_exptl_crystal_density_diffrn 1.167
_exptl_crystal_description 'block'
_diffrn_ambient_temperature 100
#These two values have been output from a single CSD field.
_refine_ls_R_factor_gt 0.0376
_refine_ls_wR_factor_gt 0.0376
_symmetry_cell_setting cubic
_symmetry_space_group_name_H-M 'P 21 3'
_symmetry_Int_Tables_number 198
loop_
_symmetry_equiv_pos_site_id
_symmetry_equiv_pos_as_xyz
1 x,y,z
2 1/2-x,-y,1/2+z
3 -x,1/2+y,1/2-z
4 1/2+x,1/2-y,-z
5 z,x,y
6 1/2+z,1/2-x,-y
7 1/2-z,-x,1/2+y
8 -z,1/2+x,1/2-y
9 y,z,x
10 -y,1/2+z,1/2-x
11 1/2+y,1/2-z,-x
12 1/2-y,-z,1/2+x
_cell_length_a 18.5568(5)
_cell_length_b 18.5568(5)
_cell_length_c 18.5568(5)
_cell_angle_alpha 90
_cell_angle_beta 90
_cell_angle_gamma 90
_cell_formula_units_Z 4
loop_
_atom_type_symbol
_atom_type_radius_bond
C 0.68
H 0.23
Ce 2.04
N 0.68
loop_
_atom_site_label
_atom_site_type_symbol
_atom_site_fract_x
_atom_site_fract_y
_atom_site_fract_z
Ce1 Ce 0.77298(2) 0.77298(2) 0.77298(2)
C1 C 0.8535(4) 0.7212(3) 0.9546(3)
H1 H 0.88240 0.67760 0.96750
N1 N 0.8261(3) 0.7114(2) 0.8807(2)
C2 C 0.9031(4) 0.7862(4) 0.9575(4)
H2 H 0.93980 0.78210 0.91970
H3 H 0.92660 0.78830 1.00470
H4 H 0.87490 0.83030 0.94990
N2 N 0.7869(2) 0.6390(2) 0.79012(19)
C3 C 0.7927(4) 0.7278(3) 1.0084(3)
C4 C 0.6721(5) 0.7617(6) 1.0418(4)
H5 H 0.62780 0.78300 1.02760
C5 C 0.7281(5) 0.7586(5) 0.9928(3)
H6 H 0.72110 0.77890 0.94630
C6 C 0.6787(7) 0.7349(4) 1.1102(4)
H7 H 0.63960 0.73520 1.14320
C7 C 0.8009(5) 0.7018(3) 1.0791(3)
H8 H 0.84530 0.68010 1.09260
C8 C 0.7470(6) 0.7067(3) 1.1288(3)
H9 H 0.75550 0.69090 1.17670
C9 C 0.8146(2) 0.6452(2) 0.8560(2)
C10 C 0.8326(3) 0.5791(2) 0.8993(2)
C11 C 0.7862(3) 0.5555(3) 0.9532(3)
H10 H 0.74360 0.58180 0.96390
C12 C 0.8028(3) 0.4924(3) 0.9920(3)
H11 H 0.77070 0.47560 1.02810
C13 C 0.8648(3) 0.4552(3) 0.9780(3)
H12 H 0.87600 0.41320 1.00490
C14 C 0.9109(3) 0.4787(3) 0.9250(3)
H13 H 0.95390 0.45270 0.91540
C15 C 0.8948(3) 0.5404(3) 0.8853(3)
H14 H 0.92680 0.55600 0.84840
C16 C 0.7716(3) 0.5686(2) 0.7597(2)
H15 H 0.77650 0.53230 0.79920
C17 C 0.6936(3) 0.5659(3) 0.7325(4)
H16 H 0.68770 0.59970 0.69240
H17 H 0.66080 0.57930 0.77170
H18 H 0.68240 0.51700 0.71620
C18 C 0.8235(3) 0.5477(2) 0.6999(2)
C19 C 0.8754(3) 0.5942(3) 0.6729(4)
H19 H 0.88100 0.64070 0.69350
C20 C 0.9188(4) 0.5735(4) 0.6165(5)
H20 H 0.95230 0.60690 0.59690
C21 C 0.9147(4) 0.5052(4) 0.5880(4)
H21 H 0.94640 0.49050 0.55070
C22 C 0.8648(4) 0.4597(3) 0.6140(4)
H22 H 0.86020 0.41300 0.59340
C23 C 0.8201(4) 0.4791(3) 0.6700(3)
H23 H 0.78650 0.44520 0.68840
C1D C 0.9546(4) 0.8535(3) 0.7212(3)
H1D H 0.96750 0.88240 0.67760
N1D N 0.8807(3) 0.8261(2) 0.7114(2)
C2D C 0.9575(4) 0.9031(4) 0.7862(4)
H2D H 0.91970 0.93980 0.78210
H3D H 1.00470 0.92660 0.78830
H4D H 0.94990 0.87490 0.83030
N2D N 0.79012(20) 0.7869(2) 0.63900(19)
C3D C 1.0084(4) 0.7927(3) 0.7278(3)
C4D C 1.0418(5) 0.6721(6) 0.7617(4)
H5D H 1.02760 0.62780 0.78300
C5D C 0.9928(5) 0.7281(5) 0.7586(3)
H6D H 0.94630 0.72110 0.77890
C6D C 1.1102(7) 0.6787(4) 0.7349(4)
H7D H 1.14320 0.63960 0.73520
C7D C 1.0791(5) 0.8009(3) 0.7018(3)
H8D H 1.09260 0.84530 0.68010
C8D C 1.1288(6) 0.7470(3) 0.7067(3)
H9D H 1.17670 0.75550 0.69090
C9D C 0.8560(2) 0.8146(2) 0.6452(2)
C10D C 0.8993(3) 0.8326(2) 0.5791(2)
C11D C 0.9532(3) 0.7862(3) 0.5555(3)
H10D H 0.96390 0.74360 0.58180
C12D C 0.9920(3) 0.8028(3) 0.4924(3)
H11D H 1.02810 0.77070 0.47560
C13D C 0.9780(3) 0.8648(3) 0.4552(3)
H12D H 1.00490 0.87600 0.41320
C14D C 0.9250(3) 0.9109(3) 0.4787(3)
H13D H 0.91540 0.95390 0.45270
C15D C 0.8853(3) 0.8948(3) 0.5404(3)
H14D H 0.84840 0.92680 0.55600
C16D C 0.7597(3) 0.7716(2) 0.5686(2)
H15D H 0.79920 0.77650 0.53230
C17D C 0.7325(3) 0.6936(3) 0.5659(4)
H16D H 0.69240 0.68770 0.59970
H17D H 0.77170 0.66080 0.57930
H18D H 0.71620 0.68240 0.51700
C18D C 0.6999(3) 0.8235(2) 0.5477(2)
C19D C 0.6729(3) 0.8754(3) 0.5942(4)
H19D H 0.69350 0.88100 0.64070
C20D C 0.6165(4) 0.9188(4) 0.5735(5)
H20D H 0.59690 0.95230 0.60690
C21D C 0.5880(4) 0.9147(4) 0.5052(4)
H21D H 0.55070 0.94640 0.49050
C22D C 0.6140(4) 0.8648(3) 0.4597(4)
H22D H 0.59340 0.86020 0.41300
C23D C 0.6700(4) 0.8201(3) 0.4791(3)
H23D H 0.68840 0.78650 0.44520
C1H C 0.7212(4) 0.9546(3) 0.8535(3)
H1H H 0.67760 0.96750 0.88240
N1H N 0.7114(3) 0.8807(2) 0.8261(2)
C2H C 0.7862(4) 0.9575(4) 0.9031(4)
H2H H 0.78210 0.91970 0.93980
H3H H 0.78830 1.00470 0.92660
H4H H 0.83030 0.94990 0.87490
N2H N 0.6390(2) 0.79012(20) 0.78690(19)
C3H C 0.7278(4) 1.0084(3) 0.7927(3)
C4H C 0.7617(5) 1.0418(6) 0.6721(4)
H5H H 0.78300 1.02760 0.62780
C5H C 0.7586(5) 0.9928(5) 0.7281(3)
H6H H 0.77890 0.94630 0.72110
C6H C 0.7349(7) 1.1102(4) 0.6787(4)
H7H H 0.73520 1.14320 0.63960
C7H C 0.7018(5) 1.0791(3) 0.8009(3)
H8H H 0.68010 1.09260 0.84530
C8H C 0.7067(6) 1.1288(3) 0.7470(3)
H9H H 0.69090 1.17670 0.75550
C9H C 0.6452(2) 0.8560(2) 0.8146(2)
C10H C 0.5791(3) 0.8993(2) 0.8326(2)
C11H C 0.5555(3) 0.9532(3) 0.7862(3)
H10H H 0.58180 0.96390 0.74360
C12H C 0.4924(3) 0.9920(3) 0.8028(3)
H11H H 0.47560 1.02810 0.77070
C13H C 0.4552(3) 0.9780(3) 0.8648(3)
H12H H 0.41320 1.00490 0.87600
C14H C 0.4787(3) 0.9250(3) 0.9109(3)
H13H H 0.45270 0.91540 0.95390
C15H C 0.5404(3) 0.8853(3) 0.8948(3)
H14H H 0.55600 0.84840 0.92680
C16H C 0.5686(3) 0.7597(2) 0.7716(2)
H15H H 0.53230 0.79920 0.77650
C17H C 0.5659(3) 0.7325(3) 0.6936(4)
H16H H 0.59970 0.69240 0.68770
H17H H 0.57930 0.77170 0.66080
H18H H 0.51700 0.71620 0.68240
C18H C 0.5477(3) 0.6999(2) 0.8235(2)
C19H C 0.5942(3) 0.6729(3) 0.8754(4)
H19H H 0.64070 0.69350 0.88100
C20H C 0.5735(4) 0.6165(4) 0.9188(5)
H20H H 0.60690 0.59690 0.95230
C21H C 0.5052(4) 0.5880(4) 0.9147(4)
H21H H 0.49050 0.55070 0.94640
C22H C 0.4597(4) 0.6140(3) 0.8648(4)
H22H H 0.41300 0.59340 0.86020
C23H C 0.4791(4) 0.6700(3) 0.8201(3)
H23H H 0.44520 0.68840 0.78650
#END

data_CSD_CIF_PUZQOQ
_audit_creation_date 2002-10-14
_audit_creation_method CSD-ConQuest-V1
_database_code_CSD PUZQOQ
_database_code_depnum_ccdc_archive 'CCDC 148507'
_chemical_formula_sum 'C9 H27 Cl3 In1 N1 Sn3'
_chemical_formula_moiety
;
C9 H27 Cl3 In1 N1 Sn3
;
_journal_coden_Cambridge 186
_journal_year 2002
_journal_page_first 2933
_journal_name_full 'J.Chem.Soc.,Dalton Trans. '
loop_
_publ_author_name
"Q.M.Cheng"
"O.Stark"
"K.Merz"
"M.Winter"
"R.A.Fischer"
_chemical_name_systematic
;
Trichloro-tris(trimethylstannyl)amine-indium
;
_cell_volume   2147.738
_exptl_crystal_colour 'colorless'
_exptl_crystal_density_diffrn 2.247
_exptl_crystal_description 'prism'
_exptl_crystal_preparation 'dichloromethane'
_diffrn_ambient_temperature 203
#These two values have been output from a single CSD field.
_refine_ls_R_factor_gt 0.0218
_refine_ls_wR_factor_gt 0.0218
_symmetry_cell_setting cubic
_symmetry_space_group_name_H-M 'P 21 3'
_symmetry_Int_Tables_number 198
loop_
_symmetry_equiv_pos_site_id
_symmetry_equiv_pos_as_xyz
1 x,y,z
2 1/2-x,-y,1/2+z
3 -x,1/2+y,1/2-z
4 1/2+x,1/2-y,-z
5 z,x,y
6 1/2+z,1/2-x,-y
7 1/2-z,-x,1/2+y
8 -z,1/2+x,1/2-y
9 y,z,x
10 -y,1/2+z,1/2-x
11 1/2+y,1/2-z,-x
12 1/2-y,-z,1/2+x
_cell_length_a 12.9021(12)
_cell_length_b 12.9021(12)
_cell_length_c 12.9021(12)
_cell_angle_alpha 90
_cell_angle_beta 90
_cell_angle_gamma 90
_cell_formula_units_Z 4
loop_
_atom_type_symbol
_atom_type_radius_bond
C 0.68
H 0.23
Cl 0.99
In 1.63
N 0.68
Sn 1.46
loop_
_atom_site_label
_atom_site_type_symbol
_atom_site_fract_x
_atom_site_fract_y
_atom_site_fract_z
Sn1 Sn 0.92355(3) 0.02794(3) 0.14860(3)
In1 In 0.90655(3) -0.09345(3) -0.09345(3)
Cl1 Cl 0.94935(12) -0.07296(14) -0.27052(11)
N1 N 1.0027(3) 0.0027(3) 0.0027(3)
C1 C 1.0391(5) 0.0683(5) 0.2625(4)
H1 H 1.07610 0.12880 0.24000
H2 H 1.08680 0.01180 0.27060
H3 H 1.00590 0.08230 0.32760
C2 C 0.8463(5) -0.1135(4) 0.1872(5)
H4 H 0.85870 -0.12970 0.25880
H5 H 0.87240 -0.16850 0.14450
H6 H 0.77320 -0.10570 0.17580
C3 C 0.8154(4) 0.1504(5) 0.1223(4)
H7 H 0.75340 0.12260 0.09200
H8 H 0.84540 0.20040 0.07610
H9 H 0.79890 0.18310 0.18700
Sn1H Sn 1.02794(3) 0.14860(3) -0.07645(3)
C1H C 1.0683(5) 0.2625(5) 0.0391(4)
H1H H 1.12880 0.24000 0.07610
H2H H 1.01180 0.27060 0.08680
H3H H 1.08230 0.32760 0.00590
C2H C 0.8865(5) 0.1872(4) -0.1537(5)
H4H H 0.87030 0.25880 -0.14130
H5H H 0.83150 0.14450 -0.12760
H6H H 0.89430 0.17580 -0.22680
C3H C 1.1504(4) 0.1223(5) -0.1846(4)
H7H H 1.12260 0.09200 -0.24660
H8H H 1.20040 0.07610 -0.15460
H9H H 1.18310 0.18700 -0.20110
Sn1D Sn 1.14860(3) -0.07645(3) 0.02794(3)
C1D C 1.2625(5) 0.0391(5) 0.0683(4)
H1D H 1.24000 0.07610 0.12880
H2D H 1.27060 0.08680 0.01180
H3D H 1.32760 0.00590 0.08230
C2D C 1.1872(5) -0.1537(4) -0.1135(5)
H4D H 1.25880 -0.14130 -0.12970
H5D H 1.14450 -0.12760 -0.16850
H6D H 1.17580 -0.22680 -0.10570
C3D C 1.1223(4) -0.1846(5) 0.1504(4)
H7D H 1.09200 -0.24660 0.12260
H8D H 1.07610 -0.15460 0.20040
H9D H 1.18700 -0.20110 0.18310
Cl1D Cl 0.72948(12) -0.05065(14) -0.07296(11)
Cl1H Cl 0.92704(12) -0.27052(14) -0.05065(11)
#END

data_CSD_CIF_PUZQUW
_audit_creation_date 2002-10-14
_audit_creation_method CSD-ConQuest-V1
_database_code_CSD PUZQUW
_database_code_depnum_ccdc_archive 'CCDC 148506'
_chemical_formula_sum 'C9 H27 Br3 In1 N1 Sn3'
_chemical_formula_moiety
;
C9 H27 Br3 In1 N1 Sn3
;
_journal_coden_Cambridge 186
_journal_year 2002
_journal_page_first 2933
_journal_name_full 'J.Chem.Soc.,Dalton Trans. '
loop_
_publ_author_name
"Q.M.Cheng"
"O.Stark"
"K.Merz"
"M.Winter"
"R.A.Fischer"
_chemical_name_systematic
;
Tribromo-tris(trimethylstannyl)amine-indium
;
_cell_volume   2191.428
_exptl_crystal_colour 'colorless'
_exptl_crystal_density_diffrn 2.607
_exptl_crystal_description 'prism'
_exptl_crystal_preparation 'dichloromethane'
_diffrn_ambient_temperature 203
#These two values have been output from a single CSD field.
_refine_ls_R_factor_gt 0.0275
_refine_ls_wR_factor_gt 0.0275
_symmetry_cell_setting cubic
_symmetry_space_group_name_H-M 'P 21 3'
_symmetry_Int_Tables_number 198
loop_
_symmetry_equiv_pos_site_id
_symmetry_equiv_pos_as_xyz
1 x,y,z
2 1/2-x,-y,1/2+z
3 -x,1/2+y,1/2-z
4 1/2+x,1/2-y,-z
5 z,x,y
6 1/2+z,1/2-x,-y
7 1/2-z,-x,1/2+y
8 -z,1/2+x,1/2-y
9 y,z,x
10 -y,1/2+z,1/2-x
11 1/2+y,1/2-z,-x
12 1/2-y,-z,1/2+x
_cell_length_a 12.989(3)
_cell_length_b 12.989(3)
_cell_length_c 12.989(3)
_cell_angle_alpha 90
_cell_angle_beta 90
_cell_angle_gamma 90
_cell_formula_units_Z 4
loop_
_atom_type_symbol
_atom_type_radius_bond
C 0.68
H 0.23
Br 1.21
In 1.63
N 0.68
Sn 1.46
loop_
_atom_site_label
_atom_site_type_symbol
_atom_site_fract_x
_atom_site_fract_y
_atom_site_fract_z
Sn1 Sn 0.10091(3) 0.27802(3) 0.82422(4)
In1 In 0.34238(3) 0.15762(3) 0.84238(3)
Br1 Br 0.52908(5) 0.18459(6) 0.80113(6)
N1 N 0.2465(4) 0.2535(4) 0.7465(4)
C1 C 0.1269(5) 0.4005(5) 0.9287(5)
H1 H 0.06310 0.43500 0.94260
H2 H 0.17480 0.44840 0.89910
H3 H 0.15470 0.37370 0.99170
C2 C 0.0606(5) 0.1385(5) 0.8996(6)
H4 H 0.11160 0.08700 0.88500
H5 H -0.00530 0.11550 0.87540
H6 H 0.05740 0.15000 0.97260
C3 C -0.0095(5) 0.3193(6) 0.7087(6)
H7 H -0.07780 0.30730 0.73440
H8 H 0.00160 0.27830 0.64820
H9 H -0.00180 0.39080 0.69160
Sn1K Sn 0.22198(3) 0.17578(3) 0.60091(4)
C1K C 0.0995(5) 0.0713(5) 0.6269(5)
H1K H 0.06500 0.05740 0.56310
H2K H 0.05160 0.10090 0.67480
H3K H 0.12630 0.00830 0.65470
C2K C 0.3615(5) 0.1004(5) 0.5606(6)
H4K H 0.41300 0.11500 0.61160
H5K H 0.38450 0.12460 0.49470
H6K H 0.35000 0.02740 0.55740
C3K C 0.1807(5) 0.2913(6) 0.4905(6)
H7K H 0.19270 0.26560 0.42220
H8K H 0.22170 0.35180 0.50160
H9K H 0.10920 0.30840 0.49820
Sn1E Sn 0.32422(3) 0.39909(3) 0.72198(4)
C1E C 0.4287(5) 0.3731(5) 0.5995(5)
H1E H 0.44260 0.43690 0.56500
H2E H 0.39910 0.32520 0.55160
H3E H 0.49170 0.34530 0.62630
C2E C 0.3996(5) 0.4394(5) 0.8615(6)
H4E H 0.38500 0.38840 0.91300
H5E H 0.37540 0.50530 0.88450
H6E H 0.47260 0.44260 0.85000
C3E C 0.2087(5) 0.5095(6) 0.6807(6)
H7E H 0.23440 0.57780 0.69270
H8E H 0.14820 0.49840 0.72170
H9E H 0.19160 0.50180 0.60920
Br1E Br 0.30113(5) -0.02908(6) 0.81541(6)
Br1K Br 0.31541(5) 0.19887(6) 1.02908(6)
#END

data_CSD_CIF_QAMBAI
_audit_creation_date 2005-03-31
_audit_creation_method CSD-ConQuest-V1
_database_code_CSD QAMBAI
_database_code_depnum_ccdc_archive 'CCDC 243699'
_chemical_formula_sum 'C18 H18 Cl2 Co1 N4'
_chemical_formula_moiety
;
C18 H18 Cl1 Co1 N4 1+,Cl1 1-
;
_journal_coden_Cambridge 580
_journal_volume 23
_journal_year 2004
_journal_page_first 3105
_journal_name_full 'Polyhedron '
loop_
_publ_author_name
"C.J.Davies"
"G.A.Solan"
"J.Fawcett"
_chemical_name_systematic
;
Chloro-(tris(2-pyridylmethyl)amine)-cobalt(ii) chloride
;
_cell_volume   1905.609
_exptl_crystal_colour 'purple'
_exptl_crystal_density_diffrn 1.465
_exptl_crystal_preparation 'acetonitrile'
_diffrn_ambient_temperature 150
#These two values have been output from a single CSD field.
_refine_ls_R_factor_gt 0.0166
_refine_ls_wR_factor_gt 0.0166
_symmetry_cell_setting cubic
_symmetry_space_group_name_H-M 'P 21 3'
_symmetry_Int_Tables_number 198
loop_
_symmetry_equiv_pos_site_id
_symmetry_equiv_pos_as_xyz
1 x,y,z
2 1/2-x,-y,1/2+z
3 -x,1/2+y,1/2-z
4 1/2+x,1/2-y,-z
5 z,x,y
6 1/2+z,1/2-x,-y
7 1/2-z,-x,1/2+y
8 -z,1/2+x,1/2-y
9 y,z,x
10 -y,1/2+z,1/2-x
11 1/2+y,1/2-z,-x
12 1/2-y,-z,1/2+x
_cell_length_a 12.3978(3)
_cell_length_b 12.3978(3)
_cell_length_c 12.3978(3)
_cell_angle_alpha 90
_cell_angle_beta 90
_cell_angle_gamma 90
_cell_formula_units_Z 4
loop_
_atom_type_symbol
_atom_type_radius_bond
C 0.68
H 0.23
Cl 0.99
Co 1.33
N 0.68
loop_
_atom_site_label
_atom_site_type_symbol
_atom_site_fract_x
_atom_site_fract_y
_atom_site_fract_z
Co1 Co 0.192504(12) 0.192504(12) 0.192504(12)
Cl1 Cl 0.29849(2) 0.29849(2) 0.29849(2)
N1 N 0.08948(8) 0.08948(8) 0.08948(8)
N2 N 0.28711(9) 0.05746(8) 0.16899(8)
C1 C 0.16213(10) 0.02246(11) 0.02426(11)
H1 H 0.18880 0.06440 -0.03830
H2 H 0.12270 -0.04130 -0.00330
C2 C 0.25574(10) -0.01345(11) 0.09264(10)
C3 C 0.30774(12) -0.11113(11) 0.07785(11)
H3 H 0.28330 -0.16030 0.02440
C4 C 0.39566(12) -0.13647(12) 0.14158(12)
H4 H 0.43220 -0.20330 0.13290
C5 C 0.42948(11) -0.06274(11) 0.21830(11)
H5 H 0.49030 -0.07770 0.26240
C6 C 0.37338(11) 0.03293(11) 0.22981(10)
H6 H 0.39670 0.08320 0.28270
Cl2 Cl 0.58242(2) 0.08242(2) 0.41758(2)
N2D N 0.16899(9) 0.28711(8) 0.05746(8)
C2D C 0.09264(10) 0.25574(11) -0.01345(10)
C1D C 0.02426(10) 0.16213(11) 0.02246(11)
C1H C 0.02246(10) 0.02426(11) 0.16213(11)
H1H H 0.06440 -0.03830 0.18880
H2H H -0.04130 -0.00330 0.12270
C2H C -0.01345(10) 0.09264(11) 0.25574(10)
N2H N 0.05746(9) 0.16899(8) 0.28711(8)
C6H C 0.03293(11) 0.22981(11) 0.37338(10)
C5H C -0.06274(11) 0.21830(11) 0.42948(11)
C4H C -0.13647(12) 0.14158(12) 0.39566(12)
C3H C -0.11113(12) 0.07785(11) 0.30774(11)
H3H H -0.16030 0.02440 0.28330
H4H H -0.20330 0.13290 0.43220
H5H H -0.07770 0.26240 0.49030
H6H H 0.08320 0.28270 0.39670
H1D H -0.03830 0.18880 0.06440
H2D H -0.00330 0.12270 -0.04130
C3D C 0.07785(12) 0.30774(11) -0.11113(11)
H3D H 0.02440 0.28330 -0.16030
C4D C 0.14158(12) 0.39566(12) -0.13647(12)
H4D H 0.13290 0.43220 -0.20330
C5D C 0.21830(11) 0.42948(11) -0.06274(11)
H5D H 0.26240 0.49030 -0.07770
C6D C 0.22981(11) 0.37338(11) 0.03293(10)
H6D H 0.28270 0.39670 0.08320
#END

data_CSD_CIF_QAMBAI01
_audit_creation_date 2017-02-01
_audit_creation_method CSD-ConQuest-V1
_database_code_CSD QAMBAI01
_database_code_depnum_ccdc_archive 'CCDC 1429142'
_chemical_formula_sum 'C18 H18 Cl2 Co1 N4'
_chemical_formula_moiety
;
C18 H18 Cl1 Co1 N4 1+,Cl1 1-
;
_journal_coden_Cambridge 4
_journal_volume 138
_journal_year 2016
_journal_page_first 16407
_journal_name_full 'J.Am.Chem.Soc. '
loop_
_publ_author_name
"T.J.Woods"
"M.F.Ballesteros-Rivas"
"S.Gomez-Coca"
"E.Ruiz"
"K.R.Dunbar"
_chemical_name_systematic
;
chloro-(tris(2-pyridylmethyl)amine)-cobalt(ii) chloride
;
_cell_volume   1903.858
_exptl_crystal_colour 'green'
_exptl_crystal_density_diffrn 1.466
_exptl_crystal_description 'block'
_diffrn_ambient_temperature 110
#These two values have been output from a single CSD field.
_refine_ls_R_factor_gt 0.022
_refine_ls_wR_factor_gt 0.022
_symmetry_cell_setting cubic
_symmetry_space_group_name_H-M 'P 21 3'
_symmetry_Int_Tables_number 198
loop_
_symmetry_equiv_pos_site_id
_symmetry_equiv_pos_as_xyz
1 x,y,z
2 1/2-x,-y,1/2+z
3 -x,1/2+y,1/2-z
4 1/2+x,1/2-y,-z
5 z,x,y
6 1/2+z,1/2-x,-y
7 1/2-z,-x,1/2+y
8 -z,1/2+x,1/2-y
9 y,z,x
10 -y,1/2+z,1/2-x
11 1/2+y,1/2-z,-x
12 1/2-y,-z,1/2+x
_cell_length_a 12.394(3)
_cell_length_b 12.394(3)
_cell_length_c 12.394(3)
_cell_angle_alpha 90
_cell_angle_beta 90
_cell_angle_gamma 90
_cell_formula_units_Z 4
loop_
_atom_type_symbol
_atom_type_radius_bond
C 0.68
H 0.23
Cl 0.99
Co 1.26
N 0.68
loop_
_atom_site_label
_atom_site_type_symbol
_atom_site_fract_x
_atom_site_fract_y
_atom_site_fract_z
Co1 Co 0.30745(2) 0.30745(2) 0.30745(2)
Cl1 Cl 0.20137(4) 0.20137(4) 0.20137(4)
N1 N 0.41060(15) 0.41060(15) 0.41060(15)
C1 C 0.4757(2) 0.33765(18) 0.4778(2)
H1 H 0.50340 0.37710 0.54150
H2 H 0.53830 0.31100 0.43580
N2 N 0.33113(15) 0.21267(16) 0.44276(15)
C2 C 0.40761(19) 0.24414(19) 0.5138(2)
C3 C 0.4225(2) 0.1921(2) 0.61117(19)
H3 H 0.47620 0.21640 0.66020
C4 C 0.3583(2) 0.1042(2) 0.6366(2)
H4 H 0.36680 0.06780 0.70350
C5 C 0.2817(2) 0.0703(2) 0.56271(19)
H5 H 0.23780 0.00930 0.57750
C6 C 0.27001(19) 0.12658(19) 0.4672(2)
H6 H 0.21680 0.10360 0.41700
Cl2 Cl 0.08232(5) -0.08232(5) 0.41768(5)
C1D C 0.4778(2) 0.47570(18) 0.33765(20)
H1D H 0.54150 0.50340 0.37710
H2D H 0.43580 0.53830 0.31100
N2D N 0.44276(15) 0.33113(16) 0.21267(15)
C2D C 0.51380(19) 0.40761(19) 0.24414(20)
C3D C 0.61117(20) 0.4225(2) 0.19210(19)
H3D H 0.66020 0.47620 0.21640
C4D C 0.6366(2) 0.3583(2) 0.1042(2)
H4D H 0.70350 0.36680 0.06780
C5D C 0.56271(20) 0.2817(2) 0.07030(19)
H5D H 0.57750 0.23780 0.00930
C6D C 0.46720(19) 0.27001(19) 0.12658(20)
H6D H 0.41700 0.21680 0.10360
C1H C 0.33765(20) 0.47780(18) 0.4757(2)
H1H H 0.37710 0.54150 0.50340
H2H H 0.31100 0.43580 0.53830
N2H N 0.21267(15) 0.44276(16) 0.33113(15)
C2H C 0.24414(19) 0.51380(19) 0.40761(20)
C3H C 0.1921(2) 0.61117(20) 0.42250(19)
H3H H 0.21640 0.66020 0.47620
C4H C 0.1042(2) 0.6366(2) 0.3583(2)
H4H H 0.06780 0.70350 0.36680
C5H C 0.0703(2) 0.56271(20) 0.28170(19)
H5H H 0.00930 0.57750 0.23780
C6H C 0.12658(19) 0.46720(19) 0.27001(20)
H6H H 0.10360 0.41700 0.21680
#END

data_CSD_CIF_QAZLUA
_audit_creation_date 2012-12-11
_audit_creation_method CSD-ConQuest-V1
_database_code_CSD QAZLUA
_database_code_depnum_ccdc_archive 'CCDC 783483'
_chemical_formula_sum 'C30 H26 Co1 Mo6 N6 O20'
_chemical_formula_moiety
;
C30 H24 Co1 N6 2+,Mo6 O19 2-,H2 O1
;
_journal_coden_Cambridge 644
_journal_volume 67
_journal_year 2012
_journal_page_first 51
_journal_name_full 'Z.Naturforsch.,B:Chem.Sci. '
loop_
_publ_author_name
"Shaobin Li"
"Haijun Pang"
"Huiyuan Ma"
"Kun Wang"
"Chuncheng Zhu"
_chemical_name_systematic
;
tris(2,2'-bipyridine)-cobalt 
(\m~6~-oxo)-dodecakis(\m~2~-oxo)-hexaoxo-hexa-molybdenum monohydrate
;
_cell_volume   3908.324
_exptl_crystal_density_diffrn 2.419
_diffrn_ambient_temperature 273
#These two values have been output from a single CSD field.
_refine_ls_R_factor_gt 0.0337
_refine_ls_wR_factor_gt 0.0337
_symmetry_cell_setting cubic
_symmetry_space_group_name_H-M 'P 21 3'
_symmetry_Int_Tables_number 198
loop_
_symmetry_equiv_pos_site_id
_symmetry_equiv_pos_as_xyz
1 x,y,z
2 1/2-x,-y,1/2+z
3 -x,1/2+y,1/2-z
4 1/2+x,1/2-y,-z
5 z,x,y
6 1/2+z,1/2-x,-y
7 1/2-z,-x,1/2+y
8 -z,1/2+x,1/2-y
9 y,z,x
10 -y,1/2+z,1/2-x
11 1/2+y,1/2-z,-x
12 1/2-y,-z,1/2+x
_cell_length_a 15.7518(3)
_cell_length_b 15.7518(3)
_cell_length_c 15.7518(3)
_cell_angle_alpha 90
_cell_angle_beta 90
_cell_angle_gamma 90
_cell_formula_units_Z 4
loop_
_atom_type_symbol
_atom_type_radius_bond
C 0.68
H 0.23
Co 1.26
Mo 1.39
N 0.68
O 0.68
loop_
_atom_site_label
_atom_site_type_symbol
_atom_site_fract_x
_atom_site_fract_y
_atom_site_fract_z
Mo1 Mo 0.64335(3) 0.37573(3) 0.01233(3)
Mo2 Mo 0.58291(3) 0.57008(3) 0.05054(3)
Co1 Co 0.54028(4) 0.95972(4) 0.04028(4)
O1 O 0.4913(2) 0.6229(2) -0.0014(2)
O2 O 0.6941(3) 0.4287(3) -0.0816(3)
O3 O 0.6214(2) 0.6442(2) 0.1163(3)
O4 O 0.6586(2) 0.4736(2) 0.0789(2)
O5 O 0.7175(3) 0.3073(3) 0.0495(3)
N1 N 0.4915(3) 0.8844(2) 0.1250(2)
O6 O 0.5451(2) 0.3490(2) 0.0847(3)
O7 O 0.5359(2) 0.4641(2) -0.0359(2)
C1 C 0.3874(3) 0.8746(4) 0.2346(3)
H1 H 0.34710 0.90090 0.26880
N2 N 0.4623(3) 1.0405(2) 0.0882(3)
C2 C 0.4170(3) 1.0110(3) 0.1552(3)
C3 C 0.4314(3) 0.9203(3) 0.1740(3)
C4 C 0.4044(4) 0.7899(3) 0.2433(3)
H2 H 0.37480 0.75780 0.28310
C5 C 0.5085(4) 0.8014(3) 0.1337(3)
H3 H 0.54970 0.77670 0.09930
C6 C 0.4661(4) 0.7515(3) 0.1926(4)
H4 H 0.47850 0.69400 0.19820
C7 C 0.3631(3) 1.0616(3) 0.2019(3)
H5 H 0.33420 1.04100 0.24900
C8 C 0.3540(4) 1.1469(4) 0.1744(4)
H6 H 0.31840 1.18360 0.20370
C9 C 0.4520(4) 1.1219(3) 0.0636(4)
H7 H 0.48260 1.14260 0.01750
C10 C 0.3968(4) 1.1746(3) 0.1060(5)
H8 H 0.38900 1.23000 0.08710
O8 O 0.305(3) 0.305(3) 0.305(3)
O9 O 0.1225(6) 0.8775(6) 0.3775(6)
Mo1I Mo 0.62427(3) 0.51233(3) -0.14335(3)
Mo1F Mo 0.48767(3) 0.35665(3) -0.12427(3)
Mo2I Mo 0.42992(3) 0.55054(3) -0.08291(3)
Mo2F Mo 0.44946(3) 0.41709(3) 0.07008(3)
O1I O 0.3771(2) 0.4986(2) 0.0087(2)
O1F O 0.5014(2) 0.5087(2) 0.1229(2)
O2I O 0.5713(3) 0.4184(3) -0.1941(3)
O2F O 0.5816(3) 0.3059(3) -0.0713(3)
O3I O 0.3558(2) 0.6163(2) -0.1214(3)
O3F O 0.3837(2) 0.3786(2) 0.1442(3)
O4I O 0.5264(2) 0.5789(2) -0.1586(2)
O4F O 0.4211(2) 0.3414(2) -0.0264(2)
O5I O 0.6927(3) 0.5495(3) -0.2175(3)
O5F O 0.4505(3) 0.2825(3) -0.1927(3)
N1E N 0.6250(3) 1.0085(2) 0.1156(2)
N1K N 0.6156(3) 0.8750(2) -0.0085(2)
O6I O 0.6510(2) 0.5847(2) -0.0451(3)
O6F O 0.4153(2) 0.4549(2) -0.1510(3)
C1E C 0.7346(3) 1.1126(4) 0.1254(3)
C1K C 0.6254(3) 0.7654(4) -0.1126(3)
H1E H 0.76880 1.15290 0.09910
H1K H 0.59910 0.73120 -0.15290
N2E N 0.5882(3) 1.0377(2) -0.0405(3)
N2K N 0.4595(3) 0.9118(2) -0.0377(3)
C2E C 0.6552(3) 1.0830(3) -0.0110(3)
C2K C 0.4890(3) 0.8448(3) -0.0830(3)
C3E C 0.6740(3) 1.0686(3) 0.0797(3)
C3K C 0.5797(3) 0.8260(3) -0.0686(3)
C4E C 0.7433(4) 1.0956(3) 0.2101(3)
C4K C 0.7101(4) 0.7567(3) -0.0956(3)
H2E H 0.78310 1.12520 0.24220
H2K H 0.74220 0.71690 -0.12520
C5E C 0.6337(4) 0.9915(3) 0.1986(3)
C5K C 0.6986(4) 0.8663(3) 0.0085(3)
H3E H 0.59930 0.95030 0.22330
H3K H 0.72330 0.90070 0.04970
C6E C 0.6926(4) 1.0339(3) 0.2485(4)
C6K C 0.7485(4) 0.8074(3) -0.0339(4)
H4E H 0.69820 1.02150 0.30600
H4K H 0.80600 0.80180 -0.02150
C7K C 0.4384(3) 0.7981(3) -0.1369(3)
C7E C 0.7019(3) 1.1369(3) -0.0616(3)
H5K H 0.45900 0.75100 -0.16580
H5E H 0.74900 1.16580 -0.04100
C8K C 0.3531(4) 0.8256(4) -0.1460(4)
C8E C 0.6744(4) 1.1460(4) -0.1469(4)
H6K H 0.31640 0.79630 -0.18160
H6E H 0.70370 1.18160 -0.18360
C9K C 0.3781(4) 0.9364(3) -0.0480(4)
C9E C 0.5636(4) 1.0480(3) -0.1219(4)
H7K H 0.35740 0.98250 -0.01740
H7E H 0.51750 1.01740 -0.14260
C10K C 0.3254(4) 0.8940(3) -0.1032(5)
C10E C 0.6060(4) 1.1032(3) -0.1746(5)
H8K H 0.27000 0.91290 -0.11100
H8E H 0.58710 1.11100 -0.23000
#END

data_CSD_CIF_QIRWIZ
_audit_creation_date 2013-10-31
_audit_creation_method CSD-ConQuest-V1
_database_code_CSD QIRWIZ
_database_code_depnum_ccdc_archive 'CCDC 924635'
_chemical_formula_sum 'C12 H30 Cl2 Cr1 N4'
_chemical_formula_moiety
;
C12 H30 Cl1 Cr1 N4 1+,Cl1 1-
;
_journal_coden_Cambridge 29
_journal_volume 639
_journal_year 2013
_journal_page_first 2269
_journal_name_full 'Z.Anorg.Allg.Chem. '
loop_
_publ_author_name
"S.Schaefer"
"A.Beitat"
"J.Becker"
"C.Wuertele"
_chemical_name_systematic
;
(tris(2-(Dimethylamino)ethyl)amine)-chloro-chromium(ii) chloride
;
_cell_volume   1713.139
_exptl_crystal_colour 'light blue'
_exptl_crystal_density_diffrn 1.37
_exptl_crystal_description 'needle'
_diffrn_ambient_temperature 193
#These two values have been output from a single CSD field.
_refine_ls_R_factor_gt 0.0427
_refine_ls_wR_factor_gt 0.0427
_symmetry_cell_setting cubic
_symmetry_space_group_name_H-M 'P 21 3'
_symmetry_Int_Tables_number 198
loop_
_symmetry_equiv_pos_site_id
_symmetry_equiv_pos_as_xyz
1 x,y,z
2 1/2-x,-y,1/2+z
3 -x,1/2+y,1/2-z
4 1/2+x,1/2-y,-z
5 z,x,y
6 1/2+z,1/2-x,-y
7 1/2-z,-x,1/2+y
8 -z,1/2+x,1/2-y
9 y,z,x
10 -y,1/2+z,1/2-x
11 1/2+y,1/2-z,-x
12 1/2-y,-z,1/2+x
_cell_length_a 11.9655(14)
_cell_length_b 11.9655(14)
_cell_length_c 11.9655(14)
_cell_angle_alpha 90
_cell_angle_beta 90
_cell_angle_gamma 90
_cell_formula_units_Z 4
loop_
_atom_type_symbol
_atom_type_radius_bond
C 0.68
H 0.23
Cl 0.99
Cr 1.39
N 0.68
loop_
_atom_site_label
_atom_site_type_symbol
_atom_site_fract_x
_atom_site_fract_y
_atom_site_fract_z
C1 C 0.3651(3) 0.7298(3) 0.0637(3)
C2 C 0.3768(3) 0.8529(3) 0.0900(3)
C3 C 0.1859(3) 0.9098(4) 0.0538(4)
H1 H 0.11620 0.93530 0.08840
H2 H 0.17330 0.83790 0.01670
H3 H 0.21070 0.96500 -0.00140
C4 C 0.2938(4) 1.0084(3) 0.1887(4)
H4 H 0.31710 1.05960 0.12920
H5 H 0.35310 1.00330 0.24500
H6 H 0.22530 1.03640 0.22370
Cl1 Cl 0.11905(7) 0.88095(7) 0.38095(7)
Cr1 Cr 0.23170(4) 0.76830(4) 0.26830(4)
H7 H 0.431(3) 0.694(3) 0.037(3)
H8 H 0.313(3) 0.718(3) 0.011(4)
H9 H 0.433(3) 0.868(3) 0.139(3)
H10 H 0.393(4) 0.891(4) 0.029(4)
N1 N 0.3337(2) 0.6663(2) 0.1663(2)
N2 N 0.2729(3) 0.8967(2) 0.1409(2)
Cl2 Cl 0.17406(10) 0.67406(10) 0.82594(10)
C3F C 0.4462(3) 0.8141(4) 0.4098(4)
H1F H 0.41160 0.88380 0.43530
H2F H 0.48330 0.82670 0.33790
H3F H 0.50140 0.78930 0.46500
C4F C 0.3113(4) 0.7062(3) 0.5084(4)
H4F H 0.37080 0.68290 0.55960
H5F H 0.25500 0.64690 0.50330
H6F H 0.27630 0.77470 0.53640
N2F N 0.3591(3) 0.7271(2) 0.3967(2)
C1F C 0.4363(3) 0.6349(3) 0.2298(3)
C2F C 0.4100(3) 0.6232(3) 0.3529(3)
H7F H 0.463(3) 0.569(3) 0.194(3)
H8F H 0.489(3) 0.687(3) 0.218(4)
H9F H 0.361(3) 0.567(3) 0.368(3)
H10F H 0.471(4) 0.607(4) 0.391(4)
C3I C 0.0902(3) 0.5538(4) 0.3141(4)
H1I H 0.06470 0.58840 0.38380
H2I H 0.16210 0.51670 0.32670
H3I H 0.03500 0.49860 0.28930
C4I C -0.0084(4) 0.6887(3) 0.2062(4)
H4I H -0.05960 0.62920 0.18290
H5I H -0.00330 0.74500 0.14690
H6I H -0.03640 0.72370 0.27470
N2I N 0.1033(3) 0.6409(2) 0.2271(2)
C1I C 0.2702(3) 0.5637(3) 0.1349(3)
C2I C 0.1471(3) 0.5900(3) 0.1232(3)
H7I H 0.306(3) 0.537(3) 0.069(3)
H8I H 0.282(3) 0.511(3) 0.187(4)
H9I H 0.132(3) 0.639(3) 0.067(3)
H10I H 0.109(4) 0.529(4) 0.107(4)
#END

data_CSD_CIF_QOSVEZ
_audit_creation_date 2001-08-17
_audit_creation_method CSD-ConQuest-V1
_database_code_CSD QOSVEZ
_database_code_depnum_ccdc_archive 'CCDC 121766'
_chemical_formula_sum 'C9 H27 Cl3 N4'
_chemical_formula_moiety
;
C9 H27 N4 3+,3(Cl1 1-)
;
_journal_coden_Cambridge 9
_journal_volume 40
_journal_year 2001
_journal_page_first 3208
_journal_name_full 'Inorg.Chem. '
loop_
_publ_author_name
"S.P.Hajela"
"A.R.Johnson"
"Jide Xu"
"C.J.Sunderland"
"S.M.Cohen"
"D.L.Caulder"
"K.N.Raymond"
_chemical_name_systematic
;
tris(2-Ammoniopropyl)amine trichloride
;
_cell_volume   1513.231
_exptl_crystal_colour 'colorless'
_exptl_crystal_density_diffrn 1.307
_exptl_special_details
;
Absolute configuration

;
_exptl_crystal_description 'block'
_exptl_crystal_preparation 'methanol'
_diffrn_ambient_temperature 162.2
#These two values have been output from a single CSD field.
_refine_ls_R_factor_gt 0.016
_refine_ls_wR_factor_gt 0.016
_symmetry_cell_setting cubic
_symmetry_space_group_name_H-M 'P 21 3'
_symmetry_Int_Tables_number 198
loop_
_symmetry_equiv_pos_site_id
_symmetry_equiv_pos_as_xyz
1 x,y,z
2 z,x,y
3 y,z,x
4 1/2+x,1/2-y,-z
5 1/2+z,1/2-x,-y
6 1/2+y,1/2-z,-x
7 -x,1/2+y,1/2-z
8 -z,1/2+x,1/2-y
9 -y,1/2+z,1/2-x
10 1/2-x,-y,1/2+z
11 1/2-z,-x,1/2+y
12 1/2-y,-z,1/2+x
_cell_length_a 11.4807(2)
_cell_length_b 11.4807(2)
_cell_length_c 11.4807(2)
_cell_angle_alpha 90
_cell_angle_beta 90
_cell_angle_gamma 90
_cell_formula_units_Z 4
loop_
_atom_type_symbol
_atom_type_radius_bond
C 0.68
H 0.23
Cl 0.99
N 0.68
loop_
_atom_site_label
_atom_site_type_symbol
_atom_site_fract_x
_atom_site_fract_y
_atom_site_fract_z
Cl1 Cl 0.54183(3) 0.54180 0.54180
Cl2 Cl 0.08135(3) 0.08130 0.08130
Cl3 Cl 0.28369(3) 0.28370 0.28370
N1 N 0.72550(9) 0.72550 0.72550
N2 N 0.4855(1) 0.6488(1) 0.7842(1)
C1 C 0.6761(1) 0.7283(1) 0.8445(1)
C2 C 0.5446(1) 0.7455(1) 0.8492(1)
C3 C 0.5003(1) 0.7430(1) 0.9745(1)
H1 H 0.711(1) 0.793(1) 0.895(1)
H2 H 0.695(1) 0.650(1) 0.886(1)
H3 H 0.520(1) 0.823(1) 0.809(1)
H4 H 0.537(2) 0.804(2) 1.020(2)
H5 H 0.520(1) 0.668(1) 1.017(1)
H6 H 0.417(2) 0.751(1) 0.970(2)
H7 H 0.507(2) 0.642(2) 0.702(2)
H8 H 0.404(2) 0.664(2) 0.783(2)
H9 H 0.497(2) 0.576(2) 0.823(2)
C1A C 0.8445(1) 0.6761(1) 0.7283(1)
C2A C 0.8492(1) 0.5446(1) 0.7455(1)
N2A N 0.7842(1) 0.4855(1) 0.6488(1)
H7A H 0.702(2) 0.507(2) 0.642(2)
H8A H 0.783(2) 0.404(2) 0.664(2)
H9A H 0.823(2) 0.497(2) 0.576(2)
C3A C 0.9745(1) 0.5003(1) 0.7430(1)
H4A H 1.020(2) 0.537(2) 0.804(2)
H5A H 1.017(1) 0.520(1) 0.668(1)
H6A H 0.970(2) 0.417(1) 0.751(2)
H3A H 0.809(1) 0.520(1) 0.823(1)
H1A H 0.895(1) 0.711(1) 0.793(1)
H2A H 0.886(1) 0.695(1) 0.650(1)
C1B C 0.7283(1) 0.8445(1) 0.6761(1)
C2B C 0.7455(1) 0.8492(1) 0.5446(1)
N2B N 0.6488(1) 0.7842(1) 0.4855(1)
H7B H 0.642(2) 0.702(2) 0.507(2)
H8B H 0.664(2) 0.783(2) 0.404(2)
H9B H 0.576(2) 0.823(2) 0.497(2)
C3B C 0.7430(1) 0.9745(1) 0.5003(1)
H4B H 0.804(2) 1.020(2) 0.537(2)
H5B H 0.668(1) 1.017(1) 0.520(1)
H6B H 0.751(2) 0.970(1) 0.417(2)
H3B H 0.823(1) 0.809(1) 0.520(1)
H1B H 0.793(1) 0.895(1) 0.711(1)
H2B H 0.650(1) 0.886(1) 0.695(1)
#END

data_CSD_CIF_QOZGUJ
_audit_creation_date 2015-02-05
_audit_creation_method CSD-ConQuest-V1
_database_code_CSD QOZGUJ
_database_code_depnum_ccdc_archive 'CCDC 1030248'
_chemical_formula_sum 'C12 H44 O48 Th6'
_chemical_formula_moiety
;
C12 H24 O38 Th6,10(H2 O1)
;
_journal_coden_Cambridge 580
_journal_volume 87
_journal_year 2015
_journal_page_first 377
_journal_name_full 'Polyhedron '
loop_
_publ_author_name
"Yingjie Zhang"
"I.Karatchevtseva"
"F.Kadi"
"Kim Lu"
"Bongho Yoon"
"J.R.Price"
"Feng Li"
"G.R.Lumpkin"
_chemical_name_systematic
;
octakis(\m-oxo)-dodecakis(\m-formato)-hexa-aqua-hexa-thorium decahydrate
;
_cell_volume   6287.577
_exptl_crystal_colour 'colorless'
_exptl_crystal_density_diffrn 2.46
_exptl_crystal_description 'prism'
_diffrn_ambient_temperature 100
_diffrn_radiation_probe x-ray
_diffrn_source synchrotron
#These two values have been output from a single CSD field.
_refine_ls_R_factor_gt 0.0355
_refine_ls_wR_factor_gt 0.0355
_symmetry_cell_setting cubic
_symmetry_space_group_name_H-M 'P 21 3'
_symmetry_Int_Tables_number 198
loop_
_symmetry_equiv_pos_site_id
_symmetry_equiv_pos_as_xyz
1 x,y,z
2 z,x,y
3 y,z,x
4 1/2-y,-z,1/2+x
5 1/2+z,1/2-x,-y
6 -y,1/2+z,1/2-x
7 1/2-z,-x,1/2+y
8 -z,1/2+x,1/2-y
9 1/2+y,1/2-z,-x
10 1/2-x,-y,1/2+z
11 1/2+x,1/2-y,-z
12 -x,1/2+y,1/2-z
_cell_length_a 18.457(2)
_cell_length_b 18.457(2)
_cell_length_c 18.457(2)
_cell_angle_alpha 90
_cell_angle_beta 90
_cell_angle_gamma 90
_cell_formula_units_Z 4
loop_
_atom_type_symbol
_atom_type_radius_bond
C 0.68
H 0.23
O 0.68
Th 2.06
loop_
_atom_site_label
_atom_site_type_symbol
_atom_site_fract_x
_atom_site_fract_y
_atom_site_fract_z
Th1 Th -0.52123(3) -0.85865(3) -0.18969(3)
Th2 Th -0.49347(3) -1.05504(3) -0.11336(3)
O1 O -0.6502(7) -0.8498(7) -0.1502(7)
O2 O -0.4328(7) -0.9344(7) -0.1203(7)
O3 O -0.5648(7) -0.7294(7) -0.2045(7)
O4 O -0.3548(7) -0.8101(7) -0.0644(8)
O5 O -0.4385(8) -1.0440(7) -0.2370(8)
O6 O -0.5679(6) -0.9714(6) -0.1658(6)
O7 O -0.5626(8) -1.1324(8) 0.0674(8)
O8 O -0.4756(8) -0.7908(7) -0.3080(7)
H1 H -0.50890 -0.79390 -0.35010
H2 H -0.42880 -0.80860 -0.32760
O9 O -0.4143(7) -1.1673(7) -0.1580(7)
H3 H -0.36720 -1.15390 -0.17570
H4 H -0.43610 -1.19410 -0.19700
O10 O -0.6280(7) -0.7010(7) -0.1032(7)
O11 O -0.5079(7) -0.9921(7) -0.0079(7)
O12 O -0.4984(8) -1.1634(7) -0.0307(8)
O13 O -0.4487(7) -0.9305(7) -0.2783(7)
O14 O -0.4077(8) -0.7850(8) -0.1712(8)
C1 C -0.4252(12) -0.9928(11) -0.2798(11)
H5 H -0.39340 -1.00340 -0.31750
C2 C -0.6066(11) -0.6889(10) -0.1657(11)
H6 H -0.62230 -0.64590 -0.18680
C3 C -0.3555(11) -0.7833(12) -0.1265(11)
H7 H -0.31360 -0.75970 -0.14150
C4 C -0.5276(13) -1.1766(12) 0.0307(10)
H8 H -0.52220 -1.22300 0.04950
O15 O -0.2918(9) -0.9446(12) -0.1822(11)
O16 O -0.5655(14) -1.0655(14) -0.4345(14)
O17 O -0.7398(8) -0.7602(8) -0.2398(8)
O18 O -0.5778(16) -0.7971(17) -0.4338(17)
O19 O -0.273(2) -1.0986(19) -0.1978(19)
O20 O -0.3630(18) -0.8396(18) -0.3985(19)
O21 O -0.380(2) -1.120(2) 0.120(2)
Th1C Th -0.64135(3) -0.81031(3) -0.02123(3)
Th2C Th -0.44496(3) -0.88664(3) 0.00653(3)
O2C O -0.5656(7) -0.8797(7) 0.0672(7)
O3C O -0.7706(7) -0.7955(7) -0.0648(7)
O4C O -0.6899(7) -0.9356(7) 0.1452(8)
O5C O -0.4560(8) -0.7630(7) 0.0615(8)
O6C O -0.5286(6) -0.8342(6) -0.0679(6)
O7C O -0.3676(8) -1.0674(8) -0.0626(8)
O8C O -0.7092(8) -0.6920(7) 0.0244(7)
H1C H -0.70610 -0.64990 -0.00890
H2C H -0.69140 -0.67240 0.07120
O9C O -0.3327(7) -0.8420(7) 0.0857(7)
H3C H -0.34610 -0.82430 0.13280
H4C H -0.30590 -0.80300 0.06390
O10C O -0.7990(7) -0.8968(7) -0.1280(7)
O12C O -0.3366(8) -0.9693(7) 0.0016(8)
O13C O -0.5695(7) -0.7217(7) 0.0513(7)
O14C O -0.7150(8) -0.8288(8) 0.0923(8)
C1C C -0.5072(12) -0.7202(11) 0.0748(11)
H5C H -0.49660 -0.68250 0.10660
C2C C -0.8111(11) -0.8343(10) -0.1066(11)
H6C H -0.85410 -0.81320 -0.12230
C3C C -0.7167(11) -0.8735(12) 0.1445(11)
H7C H -0.74030 -0.85850 0.18640
C4C C -0.3234(13) -1.0307(12) -0.0276(10)
H8C H -0.27700 -1.04950 -0.02220
Th1D Th -0.68969(3) -0.97877(3) -0.14135(3)
Th2D Th -0.61336(3) -1.00653(3) 0.05504(3)
O2D O -0.6203(7) -1.0672(7) -0.0656(7)
O3D O -0.7045(7) -0.9352(7) -0.2706(7)
O4D O -0.5644(7) -1.1452(7) -0.1899(8)
O5D O -0.7370(8) -1.0615(7) 0.0440(8)
O6D O -0.6658(6) -0.9321(6) -0.0286(6)
O7D O -0.4326(8) -0.9374(8) 0.1324(8)
O8D O -0.8080(8) -1.0244(7) -0.2092(7)
H1D H -0.85010 -0.99110 -0.20610
H2D H -0.82760 -1.07120 -0.19140
O9D O -0.6580(7) -1.0857(7) 0.1673(7)
H3D H -0.67570 -1.13280 0.15390
H4D H -0.69700 -1.06390 0.19410
O10D O -0.6032(7) -0.8720(7) -0.2990(7)
O12D O -0.5307(8) -1.0016(7) 0.1634(8)
O13D O -0.7783(7) -1.0513(7) -0.0695(7)
O14D O -0.6712(8) -1.0923(8) -0.2150(8)
C1D C -0.7798(12) -1.0748(11) -0.0072(11)
H5D H -0.81750 -1.10660 0.00340
C2D C -0.6657(11) -0.8934(10) -0.3111(11)
H6D H -0.68680 -0.87770 -0.35410
C3D C -0.6265(11) -1.1445(12) -0.2167(11)
H7D H -0.64150 -1.18640 -0.24030
C4D C -0.4693(13) -0.9724(12) 0.1766(10)
H8D H -0.45050 -0.97780 0.22300
#END

data_CSD_CIF_QOZKOI
_audit_creation_date 2019-11-20
_audit_creation_method CSD-ConQuest-V1
_database_code_CSD QOZKOI
_database_code_depnum_ccdc_archive 'CCDC 1935680'
_chemical_formula_sum 'H10 B2 N2 O10 P2'
_chemical_formula_moiety
;
2(H4 N1 1+),2(B1 3+),2(O4 P1 3-),2(H1 O1 1-)
;
_journal_coden_Cambridge 603
_journal_volume 38
_journal_year 2019
_journal_page_first 1909
_journal_name_full 'Jiegou Huaxue(Chin.)(Chin.J.Struct.Chem.) '
loop_
_publ_author_name
"Yu-Quan Feng"
"Qian Zhao"
"Dong-Qin Bi"
_chemical_name_systematic
;
bis(ammonium) di-boron bis(phosphate) bis(hydroxide)
;
_cell_volume    436.555
_exptl_crystal_colour 'colorless'
_exptl_crystal_density_diffrn 2.127
_exptl_crystal_description 'Block'
_diffrn_ambient_temperature 296
#These two values have been output from a single CSD field.
_refine_ls_R_factor_gt 0.0277
_refine_ls_wR_factor_gt 0.0277
_symmetry_cell_setting cubic
_symmetry_space_group_name_H-M 'P 21 3'
_symmetry_Int_Tables_number 198
loop_
_symmetry_equiv_pos_site_id
_symmetry_equiv_pos_as_xyz
1 x,y,z
2 1/2-x,-y,1/2+z
3 -x,1/2+y,1/2-z
4 1/2+x,1/2-y,-z
5 z,x,y
6 1/2+z,1/2-x,-y
7 1/2-z,-x,1/2+y
8 -z,1/2+x,1/2-y
9 y,z,x
10 -y,1/2+z,1/2-x
11 1/2+y,1/2-z,-x
12 1/2-y,-z,1/2+x
_cell_length_a 7.586(4)
_cell_length_b 7.586(4)
_cell_length_c 7.586(4)
_cell_angle_alpha 90
_cell_angle_beta 90
_cell_angle_gamma 90
_cell_formula_units_Z 2
loop_
_atom_type_symbol
_atom_type_radius_bond
H 0.23
B 0.83
N 0.68
O 0.68
P 1.05
loop_
_atom_site_label
_atom_site_type_symbol
_atom_site_fract_x
_atom_site_fract_y
_atom_site_fract_z
P1 P 0.35159(8) 0.14841(8) 0.85159(8)
O1 O 0.2389(2) 0.2611(2) 0.7389(2)
O2 O 0.3639(2) -0.0461(2) 0.7939(2)
B1 B 0.3833(4) -0.1167(4) 0.6167(4)
O3 O 0.4885(2) -0.0115(2) 0.5115(2)
N1 N 0.1211(4) 0.6211(4) 0.8789(4)
H1 H 0.069(10) 0.642(8) 0.994(8)
H2 H 0.181(11) 0.681(11) 0.819(11)
O2E O 0.2939(2) 0.1361(2) 1.0461(2)
O2K O 0.5461(2) 0.2061(2) 0.8639(2)
H1G H 0.006(10) 0.569(8) 0.858(8)
H1J H 0.142(10) 0.506(8) 0.931(8)
#END

data_CSD_CIF_QUZKAA
_audit_creation_date 2020-08-20
_audit_creation_method CSD-ConQuest-V1
_database_code_CSD QUZKAA
_database_code_depnum_ccdc_archive 'CCDC 1998364'
_chemical_formula_sum 'C42 H72 Br4 Mg2 N12'
_chemical_formula_moiety
;
C21 H36 Br2 Mg1 N6,C21 H36 Br1 Mg1 N6 1+,Br1 1-
;
_journal_coden_Cambridge 579
_journal_volume 39
_journal_year 2020
_journal_page_first 4329
_journal_name_full 'Organometallics '
loop_
_publ_author_name
"A.D.Obi"
"J.E.Walley"
"N.C.Frey"
"Yuen Onn Wong"
"D.A.Dickie"
"C.E.Webster"
"R.J.Gilliard"
"Jr."
_chemical_name_systematic
;
bromo-tris(4,5-dimethyl-1,3-bis(propan-2-yl)imidazol-2-ylidene)-magnesium(ii) 
dibromo-tris(4,5-dimethyl-1,3-bis(propan-2-yl)imidazol-2-ylidene)-magnesium(ii
) bromide
;
_cell_volume   5075.058
_exptl_crystal_colour 'colorless'
_exptl_crystal_density_diffrn 1.457
_exptl_crystal_description 'block'
_diffrn_ambient_temperature 100
#These two values have been output from a single CSD field.
_refine_ls_R_factor_gt 0.0348
_refine_ls_wR_factor_gt 0.0348
_symmetry_cell_setting cubic
_symmetry_space_group_name_H-M 'P 21 3'
_symmetry_Int_Tables_number 198
loop_
_symmetry_equiv_pos_site_id
_symmetry_equiv_pos_as_xyz
1 x,y,z
2 1/2-x,-y,1/2+z
3 -x,1/2+y,1/2-z
4 1/2+x,1/2-y,-z
5 z,x,y
6 1/2+z,1/2-x,-y
7 1/2-z,-x,1/2+y
8 -z,1/2+x,1/2-y
9 y,z,x
10 -y,1/2+z,1/2-x
11 1/2+y,1/2-z,-x
12 1/2-y,-z,1/2+x
_cell_length_a 17.1849(3)
_cell_length_b 17.1849(3)
_cell_length_c 17.1849(3)
_cell_angle_alpha 90
_cell_angle_beta 90
_cell_angle_gamma 90
_cell_formula_units_Z 4
loop_
_atom_type_symbol
_atom_type_radius_bond
C 0.68
H 0.23
Br 1.21
Mg 1.41
N 0.68
loop_
_atom_site_label
_atom_site_type_symbol
_atom_site_fract_x
_atom_site_fract_y
_atom_site_fract_z
Br1 Br 0.07903(3) 0.42097(3) 0.57903(3)
Br2 Br 0.26640(3) 0.23360(3) 0.76640(3)
Mg1 Mg 0.17587(10) 0.32413(10) 0.67587(10)
N1 N 0.2258(3) 0.4585(3) 0.7965(3)
N2 N 0.2621(3) 0.4931(3) 0.6836(3)
C1 C 0.2279(3) 0.4327(3) 0.7217(3)
C2 C 0.2567(3) 0.5331(3) 0.8043(3)
C3 C 0.2585(4) 0.5743(4) 0.8815(4)
H1 H 0.20630 0.57382 0.90458
H2 H 0.27533 0.62827 0.87390
H3 H 0.29492 0.54777 0.91643
C4 C 0.2791(3) 0.5545(3) 0.7327(4)
C5 C 0.3132(4) 0.6289(4) 0.7040(4)
H4 H 0.36056 0.61784 0.67419
H5 H 0.32607 0.66224 0.74843
H6 H 0.27545 0.65544 0.67057
C6 C 0.1957(3) 0.4139(4) 0.8614(3)
H7 H 0.17666 0.36353 0.84258
H8 H 0.15290 0.44246 0.88592
H9 H 0.23726 0.40544 0.89953
C7 C 0.2802(3) 0.4918(3) 0.6008(3)
H10 H 0.33669 0.48897 0.59371
H11 H 0.26031 0.53928 0.57621
H12 H 0.25571 0.44627 0.57667
Br3 Br 0.47313(3) 0.47313(3) 0.47313(3)
Mg2 Mg 0.55757(10) 0.55757(10) 0.55757(10)
N3 N 0.5063(3) 0.6117(3) 0.7300(3)
N4 N 0.4964(2) 0.4882(3) 0.7212(3)
C8 C 0.5147(3) 0.5526(3) 0.6790(3)
C9 C 0.4828(3) 0.5849(3) 0.8024(3)
C10 C 0.4677(4) 0.6384(4) 0.8688(3)
H13 H 0.51538 0.66699 0.88144
H14 H 0.45109 0.60812 0.91419
H15 H 0.42662 0.67529 0.85451
C11 C 0.4770(3) 0.5067(3) 0.7975(3)
C12 C 0.4546(4) 0.4475(4) 0.8561(3)
H16 H 0.40744 0.42051 0.83886
H17 H 0.44465 0.47311 0.90609
H18 H 0.49696 0.40980 0.86217
C13 C 0.5181(4) 0.6941(3) 0.7119(3)
H19 H 0.55499 0.71664 0.74906
H20 H 0.46826 0.72165 0.71552
H21 H 0.53880 0.69920 0.65902
C14 C 0.5020(4) 0.4083(3) 0.6936(3)
H22 H 0.50672 0.40809 0.63675
H23 H 0.45524 0.37956 0.70892
H24 H 0.54797 0.38347 0.71653
Br4 Br 0.34030(3) 0.84030(3) 0.65970(3)
N1E N 0.2965(3) 0.2742(3) 0.5415(3)
N2E N 0.1836(3) 0.2379(3) 0.5069(3)
C1E C 0.2217(3) 0.2721(3) 0.5673(3)
C2E C 0.3043(3) 0.2433(3) 0.4669(3)
C3E C 0.3815(4) 0.2415(4) 0.4257(4)
H1E H 0.40458 0.29370 0.42618
H2E H 0.37390 0.22467 0.37173
H3E H 0.41643 0.20508 0.45223
C4E C 0.2327(3) 0.2209(3) 0.4455(4)
C5E C 0.2040(4) 0.1868(4) 0.3711(4)
H4E H 0.17419 0.13944 0.38216
H5E H 0.24843 0.17393 0.33776
H6E H 0.17057 0.22455 0.34456
C6E C 0.3614(3) 0.3043(4) 0.5861(3)
H7E H 0.34258 0.32334 0.63647
H8E H 0.38592 0.34710 0.55754
H9E H 0.39953 0.26274 0.59456
C7E C 0.1008(3) 0.2198(3) 0.5082(3)
H10E H 0.09371 0.16331 0.51103
H11E H 0.07621 0.23969 0.46072
H12E H 0.07667 0.24429 0.55373
N1K N 0.0415(3) 0.2035(3) 0.7258(3)
N2K N 0.0069(3) 0.3164(3) 0.7621(3)
C1K C 0.0673(3) 0.2783(3) 0.7279(3)
C2K C -0.0331(3) 0.1957(3) 0.7567(3)
C3K C -0.0743(4) 0.1185(4) 0.7585(4)
H1K H -0.07382 0.09542 0.70630
H2K H -0.12827 0.12610 0.77533
H3K H -0.04777 0.08357 0.79492
C4K C -0.0545(3) 0.2673(3) 0.7791(4)
C5K C -0.1289(4) 0.2960(4) 0.8132(4)
H4K H -0.11784 0.32581 0.86056
H5K H -0.16224 0.25157 0.82607
H6K H -0.15544 0.32943 0.77545
C6K C 0.0861(3) 0.1386(4) 0.6957(3)
H7K H 0.13647 0.15742 0.67666
H8K H 0.05754 0.11408 0.65290
H9K H 0.09456 0.10047 0.73726
C7K C 0.0082(3) 0.3992(3) 0.7802(3)
H10K H 0.01103 0.40629 0.83669
H11K H -0.03928 0.42379 0.76031
H12K H 0.05373 0.42333 0.75571
N3D N 0.7300(3) 0.5063(3) 0.6117(3)
N4D N 0.7212(2) 0.4964(3) 0.4882(3)
C8D C 0.6790(3) 0.5147(3) 0.5526(3)
C9D C 0.8024(3) 0.4828(3) 0.5849(3)
C10D C 0.8688(4) 0.4677(4) 0.6384(3)
H13D H 0.88144 0.51538 0.66699
H14D H 0.91419 0.45109 0.60812
H15D H 0.85451 0.42662 0.67529
C11D C 0.7975(3) 0.4770(3) 0.5067(3)
C12D C 0.8561(4) 0.4546(4) 0.4475(3)
H16D H 0.83886 0.40744 0.42051
H17D H 0.90609 0.44465 0.47311
H18D H 0.86217 0.49696 0.40980
C13D C 0.7119(4) 0.5181(3) 0.6941(3)
H19D H 0.74906 0.55499 0.71664
H20D H 0.71552 0.46826 0.72165
H21D H 0.65902 0.53880 0.69920
C14D C 0.6936(4) 0.5020(3) 0.4083(3)
H22D H 0.63675 0.50672 0.40809
H23D H 0.70892 0.45524 0.37956
H24D H 0.71653 0.54797 0.38347
N3H N 0.6117(3) 0.7300(3) 0.5063(3)
N4H N 0.4882(2) 0.7212(3) 0.4964(3)
C8H C 0.5526(3) 0.6790(3) 0.5147(3)
C9H C 0.5849(3) 0.8024(3) 0.4828(3)
C10H C 0.6384(4) 0.8688(4) 0.4677(3)
H13H H 0.66699 0.88144 0.51538
H14H H 0.60812 0.91419 0.45109
H15H H 0.67529 0.85451 0.42662
C11H C 0.5067(3) 0.7975(3) 0.4770(3)
C12H C 0.4475(4) 0.8561(4) 0.4546(3)
H16H H 0.42051 0.83886 0.40744
H17H H 0.47311 0.90609 0.44465
H18H H 0.40980 0.86217 0.49696
C13H C 0.6941(4) 0.7119(3) 0.5181(3)
H19H H 0.71664 0.74906 0.55499
H20H H 0.72165 0.71552 0.46826
H21H H 0.69920 0.65902 0.53880
C14H C 0.4083(4) 0.6936(3) 0.5020(3)
H22H H 0.40809 0.63675 0.50672
H23H H 0.37956 0.70892 0.45524
H24H H 0.38347 0.71653 0.54797
#END

data_CSD_CIF_RANJIA
_audit_creation_date 2005-08-18
_audit_creation_method CSD-ConQuest-V1
_database_code_CSD RANJIA
_database_code_depnum_ccdc_archive 'CCDC 240830'
_chemical_formula_sum 'C24 H54 Cl1 F6 Fe1 N1 P4'
_chemical_formula_moiety
;
C24 H54 Cl1 Fe1 N1 P3 1+,F6 P1 1-
;
_journal_coden_Cambridge 15
_journal_volume 83
_journal_year 2005
_journal_page_first 332
_journal_name_full 'Can.J.Chem. '
loop_
_publ_author_name
"C.E.MacBeth"
"S.B.Harkins"
"J.C.Peters"
_chemical_name_systematic
;
(tris(2-(Diisopropylphosphino)ethyl)amine)-chloro-iron(ii) hexafluorophosphate
;
_cell_volume   3302.823
_exptl_crystal_colour 'colorless'
_exptl_crystal_density_diffrn 1.379
_exptl_crystal_description 'chunk'
_diffrn_ambient_temperature 100
#These two values have been output from a single CSD field.
_refine_ls_R_factor_gt 0.045
_refine_ls_wR_factor_gt 0.045
_symmetry_cell_setting cubic
_symmetry_space_group_name_H-M 'P 21 3'
_symmetry_Int_Tables_number 198
loop_
_symmetry_equiv_pos_site_id
_symmetry_equiv_pos_as_xyz
1 x,y,z
2 1/2-x,-y,1/2+z
3 -x,1/2+y,1/2-z
4 1/2+x,1/2-y,-z
5 z,x,y
6 1/2+z,1/2-x,-y
7 1/2-z,-x,1/2+y
8 -z,1/2+x,1/2-y
9 y,z,x
10 -y,1/2+z,1/2-x
11 1/2+y,1/2-z,-x
12 1/2-y,-z,1/2+x
_cell_length_a 14.8923(8)
_cell_length_b 14.8923(8)
_cell_length_c 14.8923(8)
_cell_angle_alpha 90
_cell_angle_beta 90
_cell_angle_gamma 90
_cell_formula_units_Z 4
loop_
_atom_type_symbol
_atom_type_radius_bond
C 0.68
H 0.23
Cl 0.99
F 0.64
Fe 1.34
N 0.68
P 1.05
loop_
_atom_site_label
_atom_site_type_symbol
_atom_site_fract_x
_atom_site_fract_y
_atom_site_fract_z
Fe1 Fe 0.98240(2) -0.01760(2) -0.01760(2)
Cl1 Cl 0.89471(4) -0.10529(4) -0.10529(4)
P1 P 0.89096(4) 0.02571(4) 0.11257(4)
N1 N 1.09100(13) 0.09100(13) 0.09100(13)
C1 C 1.04589(17) 0.1061(2) 0.17834(18)
H1 H 1.07290 0.15910 0.20800
H2 H 1.05610 0.05340 0.21750
C2 C 0.94532(17) 0.12106(17) 0.16789(18)
H3 H 0.93490 0.17610 0.13210
H4 H 0.91810 0.13010 0.22790
C3 C 0.89114(18) -0.06329(16) 0.19810(16)
H5 H 0.95600 -0.07770 0.20780
C4 C 0.85528(18) -0.04094(18) 0.29053(17)
H6 H 0.79190 -0.02390 0.28590
H7 H 0.88970 0.00910 0.31590
H8 H 0.86110 -0.09360 0.32960
C5 C 0.8503(3) -0.1496(2) 0.1628(2)
H9 H 0.86660 -0.19950 0.20250
H10 H 0.87310 -0.16150 0.10220
H11 H 0.78480 -0.14370 0.16080
C6 C 0.77593(19) 0.0670(2) 0.09103(19)
H12 H 0.78540 0.11790 0.04830
C7 C 0.7301(2) 0.1112(2) 0.1710(2)
H13 H 0.66920 0.12930 0.15400
H14 H 0.76450 0.16420 0.18940
H15 H 0.72720 0.06850 0.22090
C8 C 0.7191(2) 0.0054(3) 0.0407(3)
H16 H 0.69030 -0.03670 0.08230
H17 H 0.75580 -0.02810 -0.00240
H18 H 0.67300 0.03950 0.00850
P2 P 0.89886(6) 0.39886(6) 0.10114(6)
F1 F 0.99002(11) 0.36735(11) 0.05373(10)
F2 F 0.85064(11) 0.30793(10) 0.06981(11)
P1D P 1.11257(4) -0.10904(4) 0.02571(4)
P1H P 1.02571(4) 0.11257(4) -0.10904(4)
C1D C 1.17834(17) 0.04589(20) 0.10610(18)
C1H C 1.10610(17) 0.17834(20) 0.04589(18)
H1D H 1.20800 0.07290 0.15910
H1H H 1.15910 0.20800 0.07290
H2D H 1.21750 0.05610 0.05340
H2H H 1.05340 0.21750 0.05610
C2D C 1.16789(17) -0.05468(17) 0.12106(18)
C2H C 1.12106(17) 0.16789(17) -0.05468(18)
H3H H 1.17610 0.13210 -0.06510
H3D H 1.13210 -0.06510 0.17610
H4H H 1.13010 0.22790 -0.08190
H4D H 1.22790 -0.08190 0.13010
C3H C 0.93671(18) 0.19810(16) -0.10886(16)
C3D C 1.19810(18) -0.10886(16) -0.06329(16)
H5H H 0.92230 0.20780 -0.04400
H5D H 1.20780 -0.04400 -0.07770
C4H C 0.95906(18) 0.29053(18) -0.14472(17)
C4D C 1.29053(18) -0.14472(18) -0.04094(17)
H6H H 0.97610 0.28590 -0.20810
H6D H 1.28590 -0.20810 -0.02390
H7H H 1.00910 0.31590 -0.11030
H7D H 1.31590 -0.11030 0.00910
H8H H 0.90640 0.32960 -0.13890
H8D H 1.32960 -0.13890 -0.09360
C5H C 0.8504(3) 0.1628(2) -0.1497(2)
C5D C 1.1628(3) -0.1497(2) -0.1496(2)
H9H H 0.80050 0.20250 -0.13340
H9D H 1.20250 -0.13340 -0.19950
H10H H 0.83850 0.10220 -0.12690
H10D H 1.10220 -0.12690 -0.16150
H11H H 0.85630 0.16080 -0.21520
H11D H 1.16080 -0.21520 -0.14370
C6H C 1.06700(19) 0.09103(20) -0.22407(19)
C6D C 1.09103(19) -0.22407(20) 0.06700(19)
H12H H 1.11790 0.04830 -0.21460
H12D H 1.04830 -0.21460 0.11790
C7H C 1.1112(2) 0.1710(2) -0.2699(2)
C7D C 1.1710(2) -0.2699(2) 0.1112(2)
H13H H 1.12930 0.15400 -0.33080
H13D H 1.15400 -0.33080 0.12930
H14H H 1.16420 0.18940 -0.23550
H14D H 1.18940 -0.23550 0.16420
H15H H 1.06850 0.22090 -0.27280
H15D H 1.22090 -0.27280 0.06850
C8H C 1.0054(2) 0.0407(3) -0.2809(3)
C8D C 1.0407(2) -0.2809(3) 0.0054(3)
H16H H 0.96330 0.08230 -0.30970
H16D H 1.08230 -0.30970 -0.03670
H17H H 0.97190 -0.00240 -0.24420
H17D H 0.99760 -0.24420 -0.02810
H18H H 1.03950 0.00850 -0.32700
H18D H 1.00850 -0.32700 0.03950
F1G F 0.94627(11) 0.49002(11) 0.13265(10)
F1J F 0.86735(11) 0.44627(11) 0.00998(10)
F2G F 0.93019(11) 0.35064(10) 0.19207(11)
F2J F 0.80793(11) 0.43019(10) 0.14936(11)
#END

data_CSD_CIF_RARCAP
_audit_creation_date 2005-11-21
_audit_creation_method CSD-ConQuest-V1
_database_code_CSD RARCAP
_database_code_depnum_ccdc_archive 'CCDC 280563'
_chemical_formula_sum 'C6 H6 F18 La1 N3 O15 S6'
_chemical_formula_moiety
;
C6 H6 F18 La1 N3 O15 S6
;
_journal_coden_Cambridge 9
_journal_volume 44
_journal_year 2005
_journal_page_first 4934
_journal_name_full 'Inorg.Chem. '
loop_
_publ_author_name
"A.I.Bhatt"
"I.May"
"V.A.Volkovich"
"D.Collison"
"M.Helliwell"
"I.B.Polovov"
"R.G.Lewin"
_chemical_name_systematic
;
(clambda/\D)-Triaqua-tris((R,R)-bis(trifluoromethylsulfonyl)amide-O,O')-lantha
num(iii)
;
_chemical_name_common
;
(clambda/cdelta)-Triaqua-tris((R,R)-bistriflimide-O,O')-lanthanum(iii)
;
_cell_volume   6403.977
_exptl_crystal_colour 'pale yellow'
_exptl_crystal_density_diffrn 2.144
_exptl_special_details
;
Absolute configuration
hygroscopic

;
_exptl_crystal_description 'plate'
_diffrn_ambient_temperature 100
#These two values have been output from a single CSD field.
_refine_ls_R_factor_gt 0.0394
_refine_ls_wR_factor_gt 0.0394
_symmetry_cell_setting cubic
_symmetry_space_group_name_H-M 'P 21 3'
_symmetry_Int_Tables_number 198
loop_
_symmetry_equiv_pos_site_id
_symmetry_equiv_pos_as_xyz
1 x,y,z
2 1/2-x,-y,1/2+z
3 -x,1/2+y,1/2-z
4 1/2+x,1/2-y,-z
5 z,x,y
6 1/2+z,1/2-x,-y
7 1/2-z,-x,1/2+y
8 -z,1/2+x,1/2-y
9 y,z,x
10 -y,1/2+z,1/2-x
11 1/2+y,1/2-z,-x
12 1/2-y,-z,1/2+x
_cell_length_a 18.5702(15)
_cell_length_b 18.5702(15)
_cell_length_c 18.5702(15)
_cell_angle_alpha 90
_cell_angle_beta 90
_cell_angle_gamma 90
_cell_formula_units_Z 8
loop_
_atom_type_symbol
_atom_type_radius_bond
C 0.68
H 0.23
F 0.64
La 1.87
N 0.68
O 0.68
S 1.02
loop_
_atom_site_label
_atom_site_type_symbol
_atom_site_fract_x
_atom_site_fract_y
_atom_site_fract_z
La1 La 0.018312(18) 0.018312(18) 0.018312(18)
S1 S 0.00584(8) -0.08690(8) 0.19632(8)
S2 S 0.06032(8) 0.21904(8) -0.00641(8)
F1 F -0.1288(2) -0.1135(2) 0.1658(2)
F2 F -0.0582(3) -0.2060(2) 0.1679(2)
F3 F -0.0929(2) -0.1577(2) 0.2669(2)
F4 F 0.0724(3) 0.3324(2) 0.0750(2)
F5 F 0.0329(2) 0.2379(2) 0.12947(18)
F6 F 0.1455(2) 0.2463(3) 0.1016(2)
O1 O 0.0171(2) -0.0741(2) 0.1207(2)
O2 O 0.0603(2) -0.1261(2) 0.2331(3)
O3 O 0.0734(2) 0.1432(2) 0.0071(2)
O4 O 0.1067(2) 0.2534(2) -0.0570(2)
O5 O -0.0244(2) 0.0225(3) -0.1079(2)
H1 H -0.059(3) 0.006(4) -0.129(4)
H2 H 0.001(4) 0.043(4) -0.138(3)
N1 N -0.0215(3) -0.0200(3) 0.2393(3)
C1 C -0.0742(4) -0.1451(3) 0.1996(3)
C2 C 0.0791(4) 0.2617(4) 0.0808(3)
La2 La 0.266565(17) 0.733435(17) 0.233435(17)
S3 S 0.14853(11) 0.73491(13) 0.06691(10)
S4 S 0.46659(9) 0.70735(11) 0.21558(11)
F7 F 0.1359(5) 0.5967(4) 0.0525(5)
F8 F 0.0792(4) 0.6567(5) -0.0260(4)
F9 F 0.0366(4) 0.6512(5) 0.0809(4)
F10 F 0.5199(3) 0.5913(3) 0.2661(3)
F11 F 0.5941(3) 0.6836(3) 0.2650(4)
F12 F 0.5072(3) 0.6749(5) 0.3440(3)
O6 O 0.1665(2) 0.7226(3) 0.1403(2)
O7 O 0.1024(4) 0.7937(4) 0.0525(4)
O8 O 0.3947(2) 0.6860(2) 0.2364(2)
O9 O 0.4903(3) 0.6862(4) 0.1475(3)
O10 O 0.1459(2) 0.7213(2) 0.2905(2)
H3 H 0.136(4) 0.728(3) 0.3339(15)
H4 H 0.138(4) 0.6778(13) 0.289(3)
N2 N 0.2134(4) 0.7394(6) 0.0152(4)
C3 C 0.0924(7) 0.6555(7) 0.0428(6)
C4 C 0.5258(4) 0.6612(6) 0.2783(5)
S1D S 0.19632(8) 0.00584(8) -0.08690(8)
S1H S -0.08690(8) 0.19632(8) 0.00584(8)
S2D S -0.00641(8) 0.06032(8) 0.21904(8)
S2H S 0.21904(8) -0.00641(8) 0.06032(8)
F1H F -0.1135(2) 0.1658(2) -0.1288(2)
F1D F 0.1658(2) -0.1288(2) -0.1135(2)
F2H F -0.2060(3) 0.1679(2) -0.0582(2)
F2D F 0.1679(3) -0.0582(2) -0.2060(2)
F3H F -0.1577(2) 0.2669(2) -0.0929(2)
F3D F 0.2669(2) -0.0929(2) -0.1577(2)
F4H F 0.3324(3) 0.0750(2) 0.0724(2)
F4D F 0.0750(3) 0.0724(2) 0.3324(2)
F5H F 0.2379(2) 0.12947(20) 0.03290(18)
F5D F 0.12947(20) 0.0329(2) 0.23790(18)
F6H F 0.2463(2) 0.1016(3) 0.1455(2)
F6D F 0.1016(2) 0.1455(3) 0.2463(2)
O1D O 0.1207(2) 0.0171(2) -0.0741(2)
O1H O -0.0741(2) 0.1207(2) 0.0171(2)
O2D O 0.2331(2) 0.0603(2) -0.1261(3)
O2H O -0.1261(2) 0.2331(2) 0.0603(3)
O3D O 0.0071(2) 0.0734(2) 0.1432(2)
O3H O 0.1432(2) 0.0071(2) 0.0734(2)
O4H O 0.2534(2) -0.0570(2) 0.1067(2)
O4D O -0.0570(2) 0.1067(2) 0.2534(2)
O5D O -0.1079(2) -0.0244(3) 0.0225(2)
O5H O 0.0225(2) -0.1079(3) -0.0244(2)
H1D H -0.129(3) -0.059(4) 0.006(4)
H1H H 0.006(3) -0.129(4) -0.059(4)
H2D H -0.138(4) 0.001(4) 0.043(3)
H2H H 0.043(4) -0.138(4) 0.001(3)
N1D N 0.2393(3) -0.0215(3) -0.0200(3)
N1H N -0.0200(3) 0.2393(3) -0.0215(3)
C1H C -0.1451(4) 0.1996(3) -0.0742(3)
C1D C 0.1996(4) -0.0742(3) -0.1451(3)
C2H C 0.2617(4) 0.0808(4) 0.0791(3)
C2D C 0.0808(4) 0.0791(4) 0.2617(3)
S3F S 0.43309(11) 0.85147(13) 0.23491(10)
S3I S 0.26509(11) 0.56691(13) 0.35147(10)
S4I S 0.29265(9) 0.71558(11) 0.03341(11)
S4F S 0.28442(9) 0.53341(11) 0.20735(11)
F7I F 0.4033(5) 0.5525(4) 0.3641(5)
F7F F 0.4475(5) 0.8641(4) 0.0967(5)
F8I F 0.3433(4) 0.4740(5) 0.4208(4)
F8F F 0.5260(4) 0.9208(5) 0.1567(4)
F9I F 0.3488(4) 0.5809(5) 0.4634(4)
F9F F 0.4191(4) 0.9634(5) 0.1512(4)
F10F F 0.2339(3) 0.4801(3) 0.0913(3)
F10I F 0.4087(3) 0.7661(3) -0.0199(3)
F11F F 0.2350(3) 0.4059(3) 0.1836(4)
F11I F 0.3164(3) 0.7650(3) -0.0941(4)
F12F F 0.1560(3) 0.4928(5) 0.1749(3)
F12I F 0.3251(3) 0.8440(5) -0.0072(3)
O6F O 0.3597(2) 0.8335(3) 0.2226(2)
O6I O 0.2774(2) 0.6403(3) 0.3335(2)
O7F O 0.4475(4) 0.8976(4) 0.2937(4)
O7I O 0.2063(4) 0.5525(4) 0.3976(4)
O8I O 0.3140(2) 0.7364(2) 0.1053(2)
O8F O 0.2636(2) 0.6053(2) 0.1860(2)
O9F O 0.3525(3) 0.5097(4) 0.1862(3)
O9I O 0.3138(3) 0.6475(4) 0.0097(3)
O10F O 0.2095(2) 0.8541(2) 0.2213(2)
O10I O 0.2787(2) 0.7905(2) 0.3541(2)
H3F H 0.1661(40) 0.864(3) 0.2280(15)
H3I H 0.272(4) 0.8339(30) 0.3640(15)
H4F H 0.211(4) 0.8620(13) 0.1778(30)
H4I H 0.3222(40) 0.7890(13) 0.362(3)
N2F N 0.4848(4) 0.7866(6) 0.2394(4)
N2I N 0.2606(4) 0.5152(6) 0.2866(4)
C3I C 0.3445(7) 0.5428(7) 0.4076(6)
C3F C 0.4572(7) 0.9076(7) 0.1555(6)
C4F C 0.2217(4) 0.4742(6) 0.1612(5)
C4I C 0.3388(4) 0.7783(6) -0.0258(5)
#END

data_CSD_CIF_RETNIN
_audit_creation_date 1997-10-02
_audit_creation_method CSD-ConQuest-V1
_database_code_CSD RETNIN
_database_code_depnum_ccdc_archive 'CCDC 298720 100080'
_chemical_formula_sum 'C10 H30 Li1 N1 W1'
_chemical_formula_moiety
;
C3 H9 Li1 N1 1+,C7 H21 W1 1-
;
_journal_coden_Cambridge 179
_journal_volume 36
_journal_year 1997
_journal_page_first 1350
_journal_name_full 'Angew.Chem.,Int.Ed. '
loop_
_publ_author_name
"V.Pfennig"
"N.Robertson"
"K.Seppelt"
_chemical_name_systematic
;
Trimethylamine-lithium heptamethyl-tungsten
;
_cell_volume   1511.373
_exptl_crystal_colour 'yellow'
_exptl_crystal_density_diffrn 1.561
_diffrn_ambient_temperature 120.15
#These two values have been output from a single CSD field.
_refine_ls_R_factor_gt 0.0216
_refine_ls_wR_factor_gt 0.0216
_symmetry_cell_setting cubic
_symmetry_space_group_name_H-M 'P 21 3'
_symmetry_Int_Tables_number 198
loop_
_symmetry_equiv_pos_site_id
_symmetry_equiv_pos_as_xyz
1 x,y,z
2 1/2-x,-y,1/2+z
3 1/2+x,1/2-y,-z
4 z,x,y
5 -x,1/2+y,1/2-z
6 1/2-z,-x,1/2+y
7 1/2+z,1/2-x,-y
8 -z,1/2+x,1/2-y
9 y,z,x
10 1/2+y,1/2-z,-x
11 -y,1/2+z,1/2-x
12 1/2-y,-z,1/2+x
_cell_length_a 11.476(4)
_cell_length_b 11.476(4)
_cell_length_c 11.476(4)
_cell_angle_alpha 90
_cell_angle_beta 90
_cell_angle_gamma 90
_cell_formula_units_Z 4
loop_
_atom_type_symbol
_atom_type_radius_bond
C 0.73
H 0.23
Li 0.93
N 0.68
W 1.37
loop_
_atom_site_label
_atom_site_type_symbol
_atom_site_fract_x
_atom_site_fract_y
_atom_site_fract_z
W1 W 0.3747(1) 0.3747(1) 0.3747(1)
C1 C 0.4839(6) 0.4839(6) 0.4839(6)
C2 C 0.5409(5) 0.3459(6) 0.2924(6)
C3 C 0.1798(4) 0.3355(5) 0.3804(6)
Li1 Li 0.2359(9) 0.2359(9) 0.2359(9)
N1 N 0.1353(4) 0.1353(4) 0.1353(4)
C4 C 0.128(1) 0.0151(7) 0.1817(8)
H1 H 0.4510(57) 0.5232(60) 0.5440(55)
H2 H 0.5478(57) 0.3003(60) 0.2244(61)
H3 H 0.6443(57) 0.3034(52) 0.3282(53)
H4 H 0.5651(55) 0.4154(64) 0.2659(64)
H5 H 0.1510(55) 0.3694(66) 0.3093(54)
H6 H 0.1436(56) 0.3838(65) 0.4488(52)
H7 H 0.1644(49) 0.2621(54) 0.3822(61)
H8 H 0.1433(63) -0.0629(53) 0.2609(54)
H9 H 0.1993(58) -0.0435(60) 0.2046(60)
H10 H 0.0702(52) -0.0330(48) 0.1212(61)
H1C H 0.5440(57) 0.451(6) 0.5232(55)
H1H H 0.5232(57) 0.544(6) 0.4510(55)
C2C C 0.2924(5) 0.5409(6) 0.3459(6)
H2C H 0.2244(57) 0.5478(60) 0.3003(61)
H3C H 0.3282(57) 0.6443(52) 0.3034(53)
H4C H 0.2659(55) 0.5651(64) 0.4154(64)
C2H C 0.3459(5) 0.2924(6) 0.5409(6)
H2H H 0.3003(57) 0.2244(60) 0.5478(61)
H3H H 0.3034(57) 0.3282(52) 0.6443(53)
H4H H 0.4154(55) 0.2659(64) 0.5651(64)
C3C C 0.3804(4) 0.1798(5) 0.3355(6)
H5C H 0.3093(55) 0.1510(66) 0.3694(54)
H6C H 0.4488(56) 0.1436(65) 0.3838(52)
H7C H 0.3822(49) 0.1644(54) 0.2621(61)
C3H C 0.3355(4) 0.3804(5) 0.1798(6)
H5H H 0.3694(55) 0.3093(66) 0.1510(54)
H6H H 0.3838(56) 0.4488(65) 0.1436(52)
H7H H 0.2621(49) 0.3822(54) 0.1644(61)
C4C C 0.1817(10) 0.1280(7) 0.0151(8)
H8C H 0.2609(63) 0.1433(53) -0.0629(54)
H9C H 0.2046(58) 0.1993(60) -0.0435(60)
H10C H 0.1212(52) 0.0702(48) -0.0330(61)
C4H C 0.0151(10) 0.1817(7) 0.1280(8)
H8H H -0.0629(63) 0.2609(53) 0.1433(54)
H9H H -0.0435(58) 0.2046(60) 0.1993(60)
H10H H -0.0330(52) 0.1212(48) 0.0702(61)
#END

data_CSD_CIF_ROGMAE01
_audit_creation_date 2019-04-16
_audit_creation_method CSD-ConQuest-V1
_database_code_CSD ROGMAE01
_database_code_depnum_ccdc_archive 'CCDC 1813712'
_chemical_formula_sum 'C9 H9 O8 Tl1 U1'
_chemical_formula_moiety
;
C9 H9 O8 U1 1-,Tl1 1+
;
_journal_coden_Cambridge 643
_journal_volume 234
_journal_year 2019
_journal_page_first 247
_journal_name_full 'Z.Krist.Cryst.Mater. '
loop_
_publ_author_name
"O.A.Chekhomova"
"V.V.Klepov"
"D.V.Pushkin"
"E.V.Alekseev"
"A.V.Vologzhanina"
"L.B.Serezhkina"
"V.N.Serezhkin"
_chemical_name_systematic
;
thallium dioxo-tris(prop-2-enoato)-uranium
;
_cell_volume   1555.292
_exptl_crystal_colour 'yellow'
_exptl_crystal_density_diffrn 2.936
_exptl_crystal_description 'block'
_diffrn_ambient_temperature 293
#These two values have been output from a single CSD field.
_refine_ls_R_factor_gt 0.0339
_refine_ls_wR_factor_gt 0.0339
_symmetry_cell_setting cubic
_symmetry_space_group_name_H-M 'P 21 3'
_symmetry_Int_Tables_number 198
loop_
_symmetry_equiv_pos_site_id
_symmetry_equiv_pos_as_xyz
1 x,y,z
2 1/2-x,-y,1/2+z
3 -x,1/2+y,1/2-z
4 1/2+x,1/2-y,-z
5 z,x,y
6 1/2+z,1/2-x,-y
7 1/2-z,-x,1/2+y
8 -z,1/2+x,1/2-y
9 y,z,x
10 -y,1/2+z,1/2-x
11 1/2+y,1/2-z,-x
12 1/2-y,-z,1/2+x
_cell_length_a 11.5861(3)
_cell_length_b 11.5861(3)
_cell_length_c 11.5861(3)
_cell_angle_alpha 90
_cell_angle_beta 90
_cell_angle_gamma 90
_cell_formula_units_Z 4
loop_
_atom_type_symbol
_atom_type_radius_bond
C 0.68
H 0.23
O 0.68
Tl 1.45
U 1.96
loop_
_atom_site_label
_atom_site_type_symbol
_atom_site_fract_x
_atom_site_fract_y
_atom_site_fract_z
U1 U 0.20821(4) -0.70821(4) -0.29179(4)
O1 O 0.2951(8) -0.7951(8) -0.2049(8)
O2 O 0.3062(8) -0.7780(8) -0.4668(8)
O3 O 0.1533(8) -0.8756(8) -0.4123(9)
O4 O 0.1213(9) -0.6213(9) -0.3787(9)
C1 C 0.2343(13) -0.8605(13) -0.4838(15)
C2 C 0.3328(17) -0.9300(16) -0.6588(15)
H1 H 0.38940 -0.87400 -0.64870
H2 H 0.33700 -0.98050 -0.72110
C3 C 0.2478(15) -0.9378(14) -0.5859(16)
H3 H 0.19240 -0.99460 -0.59810
Tl1 Tl -0.08949(5) -0.91051(5) -0.41051(5)
O2E O 0.0332(8) -0.8062(8) -0.2220(8)
O3E O 0.0877(8) -0.6533(8) -0.1244(9)
C1E C 0.0162(13) -0.7343(13) -0.1395(15)
C2E C -0.1588(17) -0.8328(16) -0.0700(15)
H1E H -0.14870 -0.88940 -0.12600
H2E H -0.22110 -0.83700 -0.01950
C3E C -0.0859(15) -0.7478(14) -0.0622(16)
H3E H -0.09810 -0.69240 -0.00540
O2K O 0.2780(8) -0.5332(8) -0.1938(8)
O3K O 0.3756(8) -0.5877(8) -0.3467(9)
C1K C 0.3605(13) -0.5162(13) -0.2657(15)
C2K C 0.4300(17) -0.3412(16) -0.1672(15)
H1K H 0.37400 -0.35130 -0.11060
H2K H 0.48050 -0.27890 -0.16300
C3K C 0.4378(15) -0.4141(14) -0.2522(16)
H3K H 0.49460 -0.40190 -0.30760
#END

data_CSD_CIF_RONDAZ
_audit_creation_date 1998-01-27
_audit_creation_method CSD-ConQuest-V1
_database_code_CSD RONDAZ
_database_code_depnum_ccdc_archive 'CCDC 1251802; CCDC 405966'
_database_code_depnum_ccdc_fiz 'CSD 405966'
_chemical_formula_sum 'C9 H28 I1 N1 Sn3'
_chemical_formula_moiety
;
C9 H28 N1 Sn3 1+,I1 1-
;
_journal_coden_Cambridge 29
_journal_volume 623
_journal_year 1997
_journal_page_first 676
_journal_name_full 'Z.Anorg.Allg.Chem. '
loop_
_publ_author_name
"R.Hillwig"
"K.Harms"
"K.Dehnicke"
"U.Muller"
_chemical_name_systematic
;
tris(Trimethylstannyl)ammonium iodide
;
_cell_volume   3786.933
_exptl_crystal_colour 'colorless'
_exptl_crystal_density_diffrn 2.222
_diffrn_ambient_temperature 223
#These two values have been output from a single CSD field.
_refine_ls_R_factor_gt 0.029
_refine_ls_wR_factor_gt 0.029
_symmetry_cell_setting cubic
_symmetry_space_group_name_H-M 'P 21 3'
_symmetry_Int_Tables_number 198
loop_
_symmetry_equiv_pos_site_id
_symmetry_equiv_pos_as_xyz
1 x,y,z
2 1/2-x,-y,1/2+z
3 1/2+x,1/2-y,-z
4 z,x,y
5 -x,1/2+y,1/2-z
6 1/2-z,-x,1/2+y
7 1/2+z,1/2-x,-y
8 -z,1/2+x,1/2-y
9 y,z,x
10 1/2+y,1/2-z,-x
11 -y,1/2+z,1/2-x
12 1/2-y,-z,1/2+x
_cell_length_a 15.587(3)
_cell_length_b 15.587(3)
_cell_length_c 15.587(3)
_cell_angle_alpha 90
_cell_angle_beta 90
_cell_angle_gamma 90
_cell_formula_units_Z 8
loop_
_atom_type_symbol
_atom_type_radius_bond
C 0.68
H 0.23
I 1.40
N 0.68
Sn 1.46
loop_
_atom_site_label
_atom_site_type_symbol
_atom_site_fract_x
_atom_site_fract_y
_atom_site_fract_z
Sn1 Sn 0.71763(4) 0.33428(4) -0.03269(4)
N1 N 0.6584(5) 0.3416(5) -0.1584(5)
H1 H 0.6925(5) 0.3075(5) -0.1925(5)
C1 C 0.7675(7) 0.2064(5) -0.0345(7)
H2 H 0.8278(7) 0.2080(5) -0.0472(7)
H3 H 0.7383(7) 0.1737(5) -0.0777(7)
H4 H 0.7588(7) 0.1802(5) 0.0205(7)
C2 C 0.6151(6) 0.3658(7) 0.0499(6)
H5 H 0.5677(6) 0.3871(7) 0.0168(6)
H6 H 0.6334(6) 0.4091(7) 0.0897(6)
H7 H 0.5975(6) 0.3156(7) 0.0809(6)
C3 C 0.8175(6) 0.4270(6) -0.0339(6)
H8 H 0.8331(6) 0.4413(6) 0.0240(6)
H9 H 0.7983(6) 0.4777(6) -0.0631(6)
H10 H 0.8665(6) 0.4038(6) -0.0631(6)
Sn2 Sn 0.28585(5) 0.67890(4) 0.03327(5)
N2 N 0.3402(5) 0.6598(5) 0.1598(5)
H11 H 0.30651(5) 0.6939(5) 0.1939(5)
C4 C 0.1528(7) 0.6762(8) 0.0561(8)
H12 H 0.1310(7) 0.7338(8) 0.0559(8)
H13 H 0.1422(7) 0.6504(8) 0.1110(8)
H14 H 0.1247(7) 0.6435(8) 0.0122(8)
C5 C 0.3433(8) 0.5780(7) -0.0341(6)
H15 H 0.3045(8) 0.5302(7) -0.0372(6)
H16 H 0.3948(8) 0.5608(7) -0.0051(6)
H17 H 0.3572(8) 0.5968(7) -0.0911(6)
C6 C 0.3258(9) 0.8019(7) -0.0057(7)
H18 H 0.2972(9) 0.8443(7) 0.0287(7)
H19 H 0.3114(9) 0.8104(7) -0.0650(7)
H20 H 0.3867(9) 0.8073(7) 0.0016(7)
I1 I 0.79899(5) 0.20101(5) -0.29899(5)
I2 I 0.19920(5) 0.80080(5) 0.30080(5)
Sn1E Sn 0.53269(4) 0.28237(4) -0.16572(4)
C1E C 0.5345(7) 0.2325(5) -0.2936(7)
H2E H 0.5472(7) 0.1722(5) -0.2920(7)
H3E H 0.5777(7) 0.2617(5) -0.3263(7)
H4E H 0.4795(7) 0.2412(5) -0.3198(7)
C2E C 0.4501(6) 0.3849(7) -0.1342(6)
H5E H 0.4832(6) 0.4323(7) -0.1129(6)
H6E H 0.4103(6) 0.3666(7) -0.0909(6)
H7E H 0.4191(6) 0.4025(7) -0.1844(6)
C3E C 0.5339(6) 0.1825(6) -0.0730(6)
H8E H 0.4760(6) 0.1669(6) -0.0587(6)
H9E H 0.5631(6) 0.2017(6) -0.0223(6)
H10E H 0.5631(6) 0.1335(6) -0.0962(6)
Sn1J Sn 0.66572(4) 0.46731(4) -0.21763(4)
C1J C 0.7936(7) 0.4655(5) -0.2675(7)
H2J H 0.7920(7) 0.4528(5) -0.3278(7)
H3J H 0.8263(7) 0.4223(5) -0.2383(7)
H4J H 0.8198(7) 0.5205(5) -0.2588(7)
C2J C 0.6342(6) 0.5499(7) -0.1151(6)
H5J H 0.6129(6) 0.5168(7) -0.0677(6)
H6J H 0.5909(6) 0.5897(7) -0.1334(6)
H7J H 0.6844(6) 0.5809(7) -0.0975(6)
C3J C 0.5730(6) 0.4661(6) -0.3175(6)
H8J H 0.5587(6) 0.5240(6) -0.3331(6)
H9J H 0.5223(6) 0.4369(6) -0.2983(6)
H10J H 0.5962(6) 0.4369(6) -0.3665(6)
Sn2E Sn 0.46673(5) 0.71415(4) 0.17890(5)
C4E C 0.4439(7) 0.8472(8) 0.1762(8)
H12E H 0.4441(7) 0.8690(8) 0.2338(8)
H13E H 0.3890(7) 0.8578(8) 0.1504(8)
H14E H 0.4878(7) 0.8753(8) 0.1435(8)
C5E C 0.5341(8) 0.6567(7) 0.0780(6)
H15E H 0.5372(8) 0.6955(7) 0.0302(6)
H16E H 0.5051(8) 0.6052(7) 0.0608(6)
H17E H 0.5911(8) 0.6428(7) 0.0968(6)
C6E C 0.5057(9) 0.6742(7) 0.3019(7)
H18E H 0.4713(9) 0.7028(7) 0.3443(7)
H19E H 0.5650(9) 0.6886(7) 0.3104(7)
H20E H 0.4984(9) 0.6133(7) 0.3073(7)
Sn2J Sn 0.32110(5) 0.53327(4) 0.21415(5)
C4J C 0.3238(7) 0.5561(8) 0.3472(8)
H12J H 0.2662(7) 0.5559(8) 0.3690(8)
H13J H 0.3496(7) 0.6110(8) 0.3578(8)
H14J H 0.3565(7) 0.5122(8) 0.3753(8)
C5J C 0.4220(8) 0.4659(7) 0.1567(6)
H15J H 0.4698(8) 0.4628(7) 0.1955(6)
H16J H 0.4392(8) 0.4949(7) 0.1052(6)
H17J H 0.4032(8) 0.4089(7) 0.1428(6)
C6J C 0.1981(9) 0.4943(7) 0.1742(7)
H18J H 0.1557(9) 0.5287(7) 0.2028(7)
H19J H 0.1896(9) 0.4350(7) 0.1886(7)
H20J H 0.1927(9) 0.5016(7) 0.1133(7)
#END

data_CSD_CIF_RUTREF
_audit_creation_date 2015-11-28
_audit_creation_method CSD-ConQuest-V1
_database_code_CSD RUTREF
_database_code_depnum_ccdc_archive 'CCDC 1438047'
_chemical_formula_sum 'C17 H12 D2 Cl7 N3 O3 S3 Si1'
_chemical_formula_moiety
;
C15 H12 N3 O3 S3 Si1 1+,2(C1 D1 Cl3),Cl1 1-
;
_journal_coeditor_code "hg5464"
_journal_coden_Cambridge 1828
_journal_volume 71
_journal_year 2015
_journal_page_first 1531
_journal_name_full 'Acta Crystallogr.,Sect.E:Cryst.Commun. '
loop_
_publ_author_name
"B.M.Kraft"
"W.W.Brennessel"
"A.E.Ryan"
"C.K.Benjamin"
_chemical_name_systematic
;
fac-tris(1-oxopyridine-2-thiolato)silicon(iv) chloride deuterochloroform 
solvate
;
_cell_volume   2713.713
_exptl_crystal_colour 'pale yellow'
_exptl_crystal_density_diffrn 1.671
_exptl_special_details
;
Absolute configuration

;
_exptl_crystal_description 'tetrahedron'
_diffrn_ambient_temperature 100
#These two values have been output from a single CSD field.
_refine_ls_R_factor_gt 0.037
_refine_ls_wR_factor_gt 0.037
_symmetry_cell_setting cubic
_symmetry_space_group_name_H-M 'P 21 3'
_symmetry_Int_Tables_number 198
loop_
_symmetry_equiv_pos_site_id
_symmetry_equiv_pos_as_xyz
1 x,y,z
2 1/2-x,-y,1/2+z
3 -x,1/2+y,1/2-z
4 1/2+x,1/2-y,-z
5 z,x,y
6 1/2+z,1/2-x,-y
7 1/2-z,-x,1/2+y
8 -z,1/2+x,1/2-y
9 y,z,x
10 -y,1/2+z,1/2-x
11 1/2+y,1/2-z,-x
12 1/2-y,-z,1/2+x
_cell_length_a 13.9483(12)
_cell_length_b 13.9483(12)
_cell_length_c 13.9483(12)
_cell_angle_alpha 90
_cell_angle_beta 90
_cell_angle_gamma 90
_cell_formula_units_Z 4
loop_
_atom_type_symbol
_atom_type_radius_bond
C 0.68
H 0.23
Cl 0.99
D 0.23
N 0.68
O 0.68
S 1.02
Si 1.20
loop_
_atom_site_label
_atom_site_type_symbol
_atom_site_fract_x
_atom_site_fract_y
_atom_site_fract_z
Cl1 Cl 0.47976(3) -0.02024(3) 0.52024(3)
Si1 Si 0.48307(3) 0.48307(3) 0.48307(3)
S1 S 0.47110(3) 0.49896(3) 0.64425(3)
O1 O 0.45832(11) 0.35879(9) 0.49722(10)
N1 N 0.46124(12) 0.31975(11) 0.58645(11)
C1 C 0.46796(14) 0.37754(13) 0.66485(13)
C2 C 0.47203(16) 0.33345(14) 0.75505(14)
H1 H 0.47720 0.37130 0.81140
C3 C 0.46853(18) 0.23462(15) 0.76169(15)
H2 H 0.47080 0.20450 0.82280
C4 C 0.46163(15) 0.17883(14) 0.67861(15)
H3 H 0.45920 0.11090 0.68310
C5 C 0.45834(14) 0.22276(13) 0.59068(14)
H4 H 0.45410 0.18580 0.53370
C6 C 0.30918(15) 0.30918(15) 0.30918(15)
D1 D 0.35060 0.35060 0.35060
Cl2 Cl 0.30061(7) 0.19603(5) 0.36357(6)
C7 C 0.12879(19) 0.37121(19) 0.62879(19)
D2 D 0.08740 0.41260 0.58740
Cl3 Cl 0.21080(7) 0.44529(6) 0.68782(8)
S1D S 0.64425(3) 0.47110(3) 0.49896(3)
O1D O 0.49722(11) 0.45832(9) 0.35879(10)
N1D N 0.58645(12) 0.46124(11) 0.31975(11)
C1D C 0.66485(14) 0.46796(13) 0.37754(13)
C2D C 0.75505(16) 0.47203(14) 0.33345(14)
H1D H 0.81140 0.47720 0.37130
C3D C 0.76169(18) 0.46853(15) 0.23462(15)
H2D H 0.82280 0.47080 0.20450
C4D C 0.67861(15) 0.46163(14) 0.17883(15)
H3D H 0.68310 0.45920 0.11090
C5D C 0.59068(14) 0.45834(13) 0.22276(14)
H4D H 0.53370 0.45410 0.18580
S1H S 0.49896(3) 0.64425(3) 0.47110(3)
O1H O 0.35879(11) 0.49722(9) 0.45832(10)
N1H N 0.31975(12) 0.58645(11) 0.46124(11)
C1H C 0.37754(14) 0.66485(13) 0.46796(13)
C2H C 0.33345(16) 0.75505(14) 0.47203(14)
H1H H 0.37130 0.81140 0.47720
C3H C 0.23462(18) 0.76169(15) 0.46853(15)
H2H H 0.20450 0.82280 0.47080
C4H C 0.17883(15) 0.67861(14) 0.46163(15)
H3H H 0.11090 0.68310 0.45920
C5H C 0.22276(14) 0.59068(13) 0.45834(14)
H4H H 0.18580 0.53370 0.45410
Cl2D Cl 0.36357(7) 0.30061(5) 0.19603(6)
Cl2H Cl 0.19603(7) 0.36357(5) 0.30061(6)
Cl3E Cl 0.18782(7) 0.28920(6) 0.55471(8)
Cl3K Cl 0.05471(7) 0.31218(6) 0.71080(8)
#END

data_CSD_CIF_SAFCOV
_audit_creation_date 2020-10-23
_audit_creation_method CSD-ConQuest-V1
_database_code_CSD SAFCOV
_database_code_depnum_ccdc_archive 'CCDC 2005516'
_chemical_formula_sum 'C12 H30 I2 N4 Zn1'
_chemical_formula_moiety
;
C12 H30 I1 N4 Zn1 1+,I1 1-
;
_journal_coden_Cambridge 1659
_journal_volume 280
_journal_year 2021
_journal_page_first 119395
_journal_name_full 'Applied Catalysis B: Environmental(Appl.Catal.,B) '
loop_
_publ_author_name
"K.Naveen"
"Hoon Ji"
"Tea Soon Kim"
"Dongwoo Kim"
"Deug-Hee Cho"
_chemical_name_systematic
;
iodo-(tris(2-(dimethylamino)ethyl)amine)-zinc iodide
;
_cell_volume   1984.700
_exptl_crystal_colour 'silver'
_exptl_crystal_density_diffrn 1.839
_exptl_crystal_description 'block'
_diffrn_ambient_temperature 296
#These two values have been output from a single CSD field.
_refine_ls_R_factor_gt 0.0201
_refine_ls_wR_factor_gt 0.0201
_symmetry_cell_setting cubic
_symmetry_space_group_name_H-M 'P 21 3'
_symmetry_Int_Tables_number 198
loop_
_symmetry_equiv_pos_site_id
_symmetry_equiv_pos_as_xyz
1 x,y,z
2 z,x,y
3 y,z,x
4 1/2-y,-z,1/2+x
5 1/2+z,1/2-x,-y
6 -y,1/2+z,1/2-x
7 1/2-z,-x,1/2+y
8 -z,1/2+x,1/2-y
9 1/2+y,1/2-z,-x
10 1/2+x,1/2-y,-z
11 -x,1/2+y,1/2-z
12 1/2-x,-y,1/2+z
_cell_length_a 12.567(2)
_cell_length_b 12.567(2)
_cell_length_c 12.567(2)
_cell_angle_alpha 90
_cell_angle_beta 90
_cell_angle_gamma 90
_cell_formula_units_Z 4
loop_
_atom_type_symbol
_atom_type_radius_bond
C 0.68
H 0.23
I 1.40
N 0.68
Zn 1.22
loop_
_atom_site_label
_atom_site_type_symbol
_atom_site_fract_x
_atom_site_fract_y
_atom_site_fract_z
I1 I 0.107129(18) 0.107129(18) 0.107129(18)
Zn1 Zn 0.22980(3) 0.22980(3) 0.22980(3)
N1 N 0.1095(2) 0.3418(2) 0.2798(2)
N2 N 0.3315(2) 0.3315(2) 0.3315(2)
C1 C 0.1518(4) 0.3955(4) 0.3758(3)
H1 H 0.14410 0.34870 0.43670
H2 H 0.11070 0.45940 0.38950
C2 C 0.2671(4) 0.4246(3) 0.3627(4)
H3 H 0.27360 0.47950 0.30880
H4 H 0.29390 0.45320 0.42920
C3 C 0.0917(4) 0.4197(4) 0.1929(4)
H5 H 0.03830 0.47000 0.21430
H6 H 0.06830 0.38300 0.13010
H7 H 0.15690 0.45660 0.17810
C4 C 0.0038(4) 0.2930(4) 0.3066(4)
H8 H -0.04480 0.34790 0.32820
H9 H 0.01260 0.24290 0.36360
H10 H -0.02400 0.25710 0.24520
I2 I 0.69019(2) 0.19019(2) 0.30981(2)
N1A N 0.2798(2) 0.1095(2) 0.3418(2)
C1A C 0.3758(4) 0.1518(4) 0.3955(3)
H1A H 0.43670 0.14410 0.34870
H2A H 0.38950 0.11070 0.45940
C2A C 0.3627(4) 0.2671(3) 0.4246(4)
H3A H 0.30880 0.27360 0.47950
H4A H 0.42920 0.29390 0.45320
C3A C 0.1929(4) 0.0917(4) 0.4197(4)
H5A H 0.21430 0.03830 0.47000
H6A H 0.13010 0.06830 0.38300
H7A H 0.17810 0.15690 0.45660
C4A C 0.3066(4) 0.0038(4) 0.2930(4)
H8A H 0.32820 -0.04480 0.34790
H9A H 0.36360 0.01260 0.24290
H10A H 0.24520 -0.02400 0.25710
N1B N 0.3418(2) 0.2798(2) 0.1095(2)
C1B C 0.3955(4) 0.3758(4) 0.1518(3)
H1B H 0.34870 0.43670 0.14410
H2B H 0.45940 0.38950 0.11070
C2B C 0.4246(4) 0.3627(3) 0.2671(4)
H3B H 0.47950 0.30880 0.27360
H4B H 0.45320 0.42920 0.29390
C3B C 0.4197(4) 0.1929(4) 0.0917(4)
H5B H 0.47000 0.21430 0.03830
H6B H 0.38300 0.13010 0.06830
H7B H 0.45660 0.17810 0.15690
C4B C 0.2930(4) 0.3066(4) 0.0038(4)
H8B H 0.34790 0.32820 -0.04480
H9B H 0.24290 0.36360 0.01260
H10B H 0.25710 0.24520 -0.02400
#END

data_CSD_CIF_SEWBUS
_audit_creation_date 2007-05-01
_audit_creation_method CSD-ConQuest-V1
_database_code_CSD SEWBUS
_database_code_depnum_ccdc_archive 'CCDC 280055'
_chemical_formula_sum 'C23 H30 Cl2 N6 O8 Zn1'
_chemical_formula_moiety
;
C23 H30 N6 Zn1 2+,2(Cl1 O4 1-)
;
_journal_coden_Cambridge 580
_journal_volume 26
_journal_year 2007
_journal_page_first 197
_journal_name_full 'Polyhedron '
loop_
_publ_author_name
"D.P.Kennedy"
"A.G.DiPasquale"
"A.L.Rheingold"
"R.P.Planalp"
_chemical_name_systematic
;
\D(\l,\l,\l)-((S,S,S)-1,1,1-tris((2-Pyridylmethyl)aminomethyl)ethane)-zinc(ii)
 diperchlorate
;
_cell_volume   2708.696
_exptl_crystal_colour 'colorless'
_exptl_crystal_density_diffrn 1.606
_exptl_crystal_description 'block'
_exptl_crystal_preparation 'diethyl ether/acetonitrile'
_diffrn_ambient_temperature 213
#These two values have been output from a single CSD field.
_refine_ls_R_factor_gt 0.0326
_refine_ls_wR_factor_gt 0.0326
_symmetry_cell_setting cubic
_symmetry_space_group_name_H-M 'P 21 3'
_symmetry_Int_Tables_number 198
loop_
_symmetry_equiv_pos_site_id
_symmetry_equiv_pos_as_xyz
1 x,y,z
2 1/2-x,-y,1/2+z
3 -x,1/2+y,1/2-z
4 1/2+x,1/2-y,-z
5 z,x,y
6 1/2+z,1/2-x,-y
7 1/2-z,-x,1/2+y
8 -z,1/2+x,1/2-y
9 y,z,x
10 -y,1/2+z,1/2-x
11 1/2+y,1/2-z,-x
12 1/2-y,-z,1/2+x
_cell_length_a 13.9397(3)
_cell_length_b 13.9397(3)
_cell_length_c 13.9397(3)
_cell_angle_alpha 90
_cell_angle_beta 90
_cell_angle_gamma 90
_cell_formula_units_Z 4
loop_
_atom_type_symbol
_atom_type_radius_bond
C 0.68
H 0.23
Cl 0.80
N 0.68
O 0.68
Zn 1.45
loop_
_atom_site_label
_atom_site_type_symbol
_atom_site_fract_x
_atom_site_fract_y
_atom_site_fract_z
Zn1 Zn 0.677815(17) 0.322185(17) 0.822185(17)
Cl1 Cl 0.41352(6) 0.08648(6) 0.91352(6)
Cl2 Cl 0.92326(5) 0.92326(5) 0.92326(5)
O1 O 0.32696(17) 0.03639(17) 0.8909(2)
O2 O 0.4732(2) 0.0268(2) 0.9732(2)
O3 O 0.8313(4) 0.9103(5) 0.9628(6)
O4 O 0.9694(4) 0.9694(4) 0.9694(4)
N1 N 0.53098(14) 0.34413(14) 0.78651(15)
N2 N 0.68598(14) 0.32790(14) 0.66690(13)
H1 H 0.69870 0.39060 0.65060
C1 C 0.46058(19) 0.3685(2) 0.8474(2)
H2 H 0.47460 0.37280 0.91320
C2 C 0.3685(2) 0.3873(2) 0.8171(3)
H3 H 0.32030 0.40280 0.86160
C3 C 0.3482(2) 0.3830(2) 0.7208(3)
H4 H 0.28590 0.39590 0.69840
C4 C 0.4212(2) 0.35931(19) 0.6569(2)
H5 H 0.40920 0.35710 0.59060
C5 C 0.51155(18) 0.33913(17) 0.69231(19)
C6 C 0.59089(19) 0.3048(2) 0.62800(19)
H6 H 0.58550 0.23520 0.61980
H7 H 0.58390 0.33460 0.56470
C7 C 0.76439(18) 0.26813(18) 0.62458(17)
H8 H 0.81590 0.31100 0.60320
H9 H 0.73910 0.23550 0.56760
C8 C 0.80813(17) 0.19187(17) 0.69187(17)
C9 C 0.87203(18) 0.12797(18) 0.62797(18)
H10 H 0.908(3) 0.082(2) 0.680(3)
O1E O 0.39090(17) 0.17304(17) 0.96361(20)
O1K O 0.46361(17) 0.10910(17) 0.82696(20)
O3D O 0.9628(4) 0.8313(5) 0.9103(6)
O3H O 0.9103(4) 0.9628(5) 0.8313(6)
N1F N 0.71349(14) 0.46902(14) 0.84413(15)
N1I N 0.65587(14) 0.28651(14) 0.96902(15)
N2F N 0.83310(14) 0.31402(14) 0.82790(13)
N2I N 0.67210(14) 0.16690(14) 0.81402(13)
H1I H 0.60940 0.15060 0.80130
H1F H 0.84940 0.30130 0.89060
C1F C 0.65260(19) 0.53942(20) 0.8685(2)
C1I C 0.63150(19) 0.3474(2) 1.03942(20)
H2F H 0.58680 0.52540 0.87280
H2I H 0.62720 0.41320 1.02540
C2F C 0.6829(2) 0.6315(2) 0.8873(3)
C2I C 0.6127(2) 0.3171(2) 1.1315(3)
H3F H 0.63840 0.67970 0.90280
H3I H 0.59720 0.36160 1.17970
C3F C 0.7792(2) 0.6518(2) 0.8830(3)
C3I C 0.6170(2) 0.2208(2) 1.1518(3)
H4F H 0.80160 0.71410 0.89590
H4I H 0.60410 0.19840 1.21410
C4F C 0.8431(2) 0.57880(19) 0.85931(20)
C4I C 0.64069(20) 0.15690(19) 1.0788(2)
H5F H 0.90940 0.59080 0.85710
H5I H 0.64290 0.09060 1.09080
C5F C 0.80769(18) 0.48845(17) 0.83913(19)
C5I C 0.66087(18) 0.19231(17) 0.98845(19)
C6F C 0.87200(19) 0.40911(20) 0.80480(19)
C6I C 0.69520(19) 0.1280(2) 0.90911(19)
H6I H 0.76480 0.11980 0.91450
H6F H 0.88020 0.41450 0.73520
H7I H 0.66540 0.06470 0.91610
H7F H 0.93530 0.41610 0.83460
C7I C 0.73187(18) 0.12458(18) 0.73561(17)
C7F C 0.87542(18) 0.23561(18) 0.76813(17)
H8I H 0.68900 0.10320 0.68410
H8F H 0.89680 0.18410 0.81100
H9I H 0.76450 0.06760 0.76090
H9F H 0.93240 0.26090 0.73550
H10F H 0.820(3) 0.092(2) 0.582(3)
H10I H 0.918(3) 0.180(2) 0.592(3)
#END

data_CSD_CIF_SIFXIQ
_audit_creation_date 2013-07-26
_audit_creation_method CSD-ConQuest-V1
_database_code_CSD SIFXIQ
_database_code_depnum_ccdc_archive 'CCDC 952653'
_chemical_formula_sum 'C12 H30 Br2 Mg1 N4'
_chemical_formula_moiety
;
C12 H30 Br1 Mg1 N4 1+,Br1 1-
;
_journal_coden_Cambridge 579
_journal_volume 32
_journal_year 2013
_journal_page_first 2787
_journal_name_full 'Organometallics '
loop_
_publ_author_name
"L.M.Guard"
"N.Hazari"
_chemical_name_systematic
;
(N,N-bis(2-(Dimethylamino)ethyl)-N',N'-dimethylethane-1,2-diamine)-bromo-magne
sium(ii) bromide
;
_cell_volume   1812.724
_exptl_crystal_colour 'colorless'
_exptl_crystal_density_diffrn 1.519
_exptl_special_details
;
Absolute configuration

;
_exptl_crystal_description 'Prism'
_diffrn_ambient_temperature 223
#These two values have been output from a single CSD field.
_refine_ls_R_factor_gt 0.0366
_refine_ls_wR_factor_gt 0.0366
_symmetry_cell_setting cubic
_symmetry_space_group_name_H-M 'P 21 3'
_symmetry_Int_Tables_number 198
loop_
_symmetry_equiv_pos_site_id
_symmetry_equiv_pos_as_xyz
1 x,y,z
2 z,x,y
3 y,z,x
4 1/2-y,-z,1/2+x
5 1/2+z,1/2-x,-y
6 -y,1/2+z,1/2-x
7 1/2-z,-x,1/2+y
8 -z,1/2+x,1/2-y
9 1/2+y,1/2-z,-x
10 1/2-x,-y,1/2+z
11 1/2+x,1/2-y,-z
12 -x,1/2+y,1/2-z
_cell_length_a 12.193(17)
_cell_length_b 12.193(17)
_cell_length_c 12.193(17)
_cell_angle_alpha 90
_cell_angle_beta 90
_cell_angle_gamma 90
_cell_formula_units_Z 4
loop_
_atom_type_symbol
_atom_type_radius_bond
C 0.68
H 0.23
Br 1.21
Mg 1.41
N 0.68
loop_
_atom_site_label
_atom_site_type_symbol
_atom_site_fract_x
_atom_site_fract_y
_atom_site_fract_z
Br1 Br 0.63978(4) 0.63978(4) 0.63978(4)
Mg1 Mg 0.52127(13) 0.52127(13) 0.52127(13)
N1 N 0.4174(3) 0.4174(3) 0.4174(3)
N2 N 0.6455(3) 0.4732(3) 0.4005(3)
C1 C 0.7549(5) 0.4498(5) 0.4483(5)
H1 H 0.78100 0.51360 0.48630
H2 H 0.80520 0.43100 0.39070
H3 H 0.74910 0.38960 0.49870
C2 C 0.6026(4) 0.3713(4) 0.3492(4)
H4 H 0.61100 0.31050 0.39980
H5 H 0.64430 0.35490 0.28350
C3 C 0.6582(5) 0.5608(5) 0.3177(5)
H6 H 0.58800 0.57760 0.28630
H7 H 0.70720 0.53650 0.26110
H8 H 0.68770 0.62520 0.35210
C4 C 0.4814(4) 0.3853(4) 0.3199(4)
H9 H 0.47390 0.44110 0.26370
H10 H 0.45300 0.31690 0.29080
Br2 Br 0.43298(5) 0.56702(5) 0.06702(5)
N2A N 0.4005(3) 0.6455(3) 0.4732(3)
C1A C 0.4483(5) 0.7549(5) 0.4498(5)
H1A H 0.48630 0.78100 0.51360
H2A H 0.39070 0.80520 0.43100
H3A H 0.49870 0.74910 0.38960
C2A C 0.3492(4) 0.6026(4) 0.3713(4)
H4A H 0.39980 0.61100 0.31050
H5A H 0.28350 0.64430 0.35490
C3A C 0.3177(5) 0.6582(5) 0.5608(5)
H6A H 0.28630 0.58800 0.57760
H7A H 0.26110 0.70720 0.53650
H8A H 0.35210 0.68770 0.62520
C4A C 0.3199(4) 0.4814(4) 0.3853(4)
H9A H 0.26370 0.47390 0.44110
H10A H 0.29080 0.45300 0.31690
N2B N 0.4732(3) 0.4005(3) 0.6455(3)
C1B C 0.4498(5) 0.4483(5) 0.7549(5)
H1B H 0.51360 0.48630 0.78100
H2B H 0.43100 0.39070 0.80520
H3B H 0.38960 0.49870 0.74910
C2B C 0.3713(4) 0.3492(4) 0.6026(4)
H4B H 0.31050 0.39980 0.61100
H5B H 0.35490 0.28350 0.64430
C3B C 0.5608(5) 0.3177(5) 0.6582(5)
H6B H 0.57760 0.28630 0.58800
H7B H 0.53650 0.26110 0.70720
H8B H 0.62520 0.35210 0.68770
C4B C 0.3853(4) 0.3199(4) 0.4814(4)
H9B H 0.44110 0.26370 0.47390
H10B H 0.31690 0.29080 0.45300
#END

data_CSD_CIF_SOJDUQ
_audit_creation_date 1999-03-02
_audit_creation_method CSD-ConQuest-V1
_database_code_CSD SOJDUQ
_chemical_formula_sum 'C24 H58 Cl4 Cu3 N12 O19'
_chemical_formula_moiety
;
C24 H54 Cu3 N12 O1 4+,4(Cl1 O4 1-),2(H2 O1)
;
_journal_coden_Cambridge 4
_journal_volume 120
_journal_year 1998
_journal_page_first 3819
_journal_name_full 'J.Am.Chem.Soc. '
loop_
_publ_author_name
"Myunghyun Paik Suh"
"Mi Young Han"
"Jea Ho Lee"
"Kil Sik Min"
"Changbong Hyeon"
_chemical_name_systematic
;
(\m~3~-Oxo)-(\m~3~-1,3,5-(6,14,22-triethylene-1,3,6,9,11,14,17,19,22-nona-azac
yclotetracosane)-1,3,5-triazacyclohexane)-copper(ii) tetraperchlorate 
dihydrate
;
_cell_volume   8543.462
_exptl_crystal_colour 'dark green'
_exptl_crystal_density_diffrn 1.79
_diffrn_ambient_temperature ?
_diffrn_special_details
;
The study was carried out at room temperature,in the range 283-303K

;
#These two values have been output from a single CSD field.
_refine_ls_R_factor_gt 0.0432
_refine_ls_wR_factor_gt 0.0432
_symmetry_cell_setting cubic
_symmetry_space_group_name_H-M 'P 21 3'
_symmetry_Int_Tables_number 198
loop_
_symmetry_equiv_pos_site_id
_symmetry_equiv_pos_as_xyz
1 x,y,z
2 1/2-x,-y,1/2+z
3 1/2+x,1/2-y,-z
4 z,x,y
5 -x,1/2+y,1/2-z
6 1/2-z,-x,1/2+y
7 1/2+z,1/2-x,-y
8 -z,1/2+x,1/2-y
9 y,z,x
10 1/2+y,1/2-z,-x
11 -y,1/2+z,1/2-x
12 1/2-y,-z,1/2+x
_cell_length_a 20.443(3)
_cell_length_b 20.443(3)
_cell_length_c 20.443(3)
_cell_angle_alpha 90
_cell_angle_beta 90
_cell_angle_gamma 90
_cell_formula_units_Z 8
loop_
_atom_type_symbol
_atom_type_radius_bond
C 0.68
H 0.23
Cl 0.99
Cu 1.32
N 0.68
O 0.68
loop_
_atom_site_label
_atom_site_type_symbol
_atom_site_fract_x
_atom_site_fract_y
_atom_site_fract_z
O1 O 0.1064(2) 0.1064(2) 0.1064(2)
Cu1 Cu 0.19333(5) 0.09238(5) 0.07927(5)
N1 N 0.2402(3) 0.1609(4) 0.1532(3)
N2 N 0.2874(4) 0.0780(4) 0.0486(3)
N3 N 0.2051(4) -0.0033(4) 0.1233(4)
N4 N 0.1751(4) 0.1041(4) -0.0211(4)
C1 C 0.2286(4) 0.1435(5) 0.2218(4)
C2 C 0.3118(5) 0.1518(6) 0.1410(5)
C3 C 0.3245(5) 0.1359(5) 0.0715(5)
C4 C 0.3134(5) 0.0160(5) 0.0772(6)
C5 C 0.2589(5) -0.0314(5) 0.0836(5)
C6 C 0.1472(4) -0.0435(4) 0.1237(5)
C7 C 0.2380(5) 0.1158(5) -0.0530(5)
C8 C 0.2895(5) 0.0737(5) -0.0238(5)
O2 O -0.1617(3) -0.1617(3) -0.1617(3)
Cu2 Cu -0.21791(5) -0.11830(5) -0.10410(5)
N5 N -0.1404(3) -0.0589(3) -0.0543(3)
N6 N -0.2800(4) -0.0744(4) -0.0395(3)
N7 N -0.2610(3) -0.0522(4) -0.1727(4)
N8 N -0.2704(4) -0.2040(4) -0.0776(4)
C9 C -0.1007(4) -0.0161(4) -0.0950(4)
C10 C -0.1781(4) -0.0166(5) -0.0087(4)
C11 C -0.2387(5) -0.0507(5) 0.0169(4)
C12 C -0.3124(5) -0.0189(5) -0.0724(5)
C13 C -0.3251(4) -0.0368(5) -0.1419(5)
C14 C -0.2669(4) -0.0796(5) -0.2385(4)
C15 C -0.3015(5) -0.1893(5) -0.0139(5)
C16 C -0.3290(5) -0.1225(5) -0.0160(4)
Cl1 Cl 0.50900(12) 0.50900(12) 0.50900(12)
O3 O 0.4701(4) 0.4701(4) 0.4701(4)
O4 O 0.4735(4) 0.5306(4) 0.5643(4)
Cl2 Cl 0.31429(13) 0.31429(13) 0.31429(13)
O5 O 0.3521(4) 0.3521(4) 0.3521(4)
O6 O 0.2919(7) 0.2598(4) 0.3480(5)
Cl3 Cl -0.09466(14) -0.07994(14) 0.17795(13)
O7 O -0.0389(4) -0.0509(5) 0.1489(4)
O8 O -0.1491(5) -0.0534(7) 0.1475(6)
O9 O -0.0953(6) -0.1472(4) 0.1648(7)
O10 O -0.0959(6) -0.0691(5) 0.2438(4)
Cl4 Cl -0.4336(2) -0.24924(14) -0.1611(2)
O11 O -0.4729(5) -0.2513(5) -0.2152(5)
O12 O -0.4143(6) -0.3071(4) -0.1362(6)
O13 O -0.3816(6) -0.2083(7) -0.1755(8)
O14 O -0.4702(10) -0.2187(8) -0.1129(6)
O15 O 0.0279(5) 0.0279(5) 0.0279(5)
O16 O -0.2398(16) -0.2398(16) -0.2398(16)
O17 O -0.315(3) -0.315(3) -0.315(3)
O18 O 0.2743(4) 0.4117(4) 0.1681(4)
H1 H 0.21930 0.00180 0.16520
H2 H 0.16280 0.06370 -0.03510
H3 H 0.24030 0.09800 0.22860
H4 H 0.25640 0.17010 0.24960
H5 H 0.33500 0.19160 0.15260
H6 H 0.32820 0.11670 0.16850
H7 H 0.37090 0.12790 0.06580
H8 H 0.31290 0.17340 0.04480
H9 H 0.34720 -0.00190 0.04910
H10 H 0.33240 0.02460 0.11980
H11 H 0.27480 -0.07110 0.10420
H12 H 0.24260 -0.04270 0.04050
H13 H 0.15900 -0.08890 0.13110
H14 H 0.12520 -0.04060 0.08180
H15 H 0.25010 0.16140 -0.04810
H16 H 0.23420 0.10640 -0.09940
H17 H 0.28270 0.02870 -0.03720
H18 H 0.33210 0.08760 -0.03940
H19 H -0.23650 -0.01510 -0.17450
H20 H -0.30390 -0.20690 -0.10680
H21 H -0.07330 0.01090 -0.06730
H22 H -0.12910 0.01250 -0.12000
H23 H -0.19090 0.02320 -0.03120
H24 H -0.15040 -0.00440 0.02780
H25 H -0.22600 -0.08760 0.04400
H26 H -0.26390 -0.02070 0.04370
H27 H -0.28460 0.01950 -0.07040
H28 H -0.35330 -0.00890 -0.05050
H29 H -0.35380 -0.07460 -0.14410
H30 H -0.34600 -0.00070 -0.16450
H31 H -0.28220 -0.12450 -0.23590
H32 H -0.29850 -0.05460 -0.26360
H33 H -0.33600 -0.22070 -0.00520
H34 H -0.26940 -0.19240 0.02080
H35 H -0.34350 -0.11010 0.02740
H36 H -0.36670 -0.12190 -0.04480
N1H N 0.1609(3) 0.1532(4) 0.2402(3)
Cu1H Cu 0.09238(5) 0.07927(5) 0.19333(5)
Cu1C Cu 0.07927(5) 0.19333(5) 0.09238(5)
N1C N 0.1532(3) 0.2402(4) 0.1609(3)
C1C C 0.2218(4) 0.2286(5) 0.1435(4)
C6C C 0.1237(4) 0.1472(4) -0.0435(5)
N3C N 0.1233(4) 0.2051(4) -0.0033(4)
N2C N 0.0486(4) 0.2874(4) 0.0780(3)
C3C C 0.0715(5) 0.3245(5) 0.1359(5)
C2C C 0.1410(5) 0.3118(6) 0.1518(5)
C1H C 0.1435(4) 0.2218(5) 0.2286(4)
C2H C 0.1518(5) 0.1410(6) 0.3118(5)
C3H C 0.1359(5) 0.0715(5) 0.3245(5)
N2H N 0.0780(4) 0.0486(4) 0.2874(3)
N3H N -0.0033(4) 0.1233(4) 0.2051(4)
C5H C -0.0314(5) 0.0836(5) 0.2589(5)
C4H C 0.0160(5) 0.0772(5) 0.3134(6)
C8H C 0.0737(5) -0.0238(5) 0.2895(5)
C7H C 0.1158(5) -0.0530(5) 0.2380(5)
N4H N 0.1041(4) -0.0211(4) 0.1751(4)
H2H H 0.06370 -0.03510 0.16280
H15H H 0.16140 -0.04810 0.25010
H16H H 0.10640 -0.09940 0.23420
H17H H 0.02870 -0.03720 0.28270
H18H H 0.08760 -0.03940 0.33210
H9H H -0.00190 0.04910 0.34720
H10H H 0.02460 0.11980 0.33240
H11H H -0.07110 0.10420 0.27480
H12H H -0.04270 0.04050 0.24260
C6H C -0.0435(4) 0.1237(4) 0.1472(5)
N4C N -0.0211(4) 0.1751(4) 0.1041(4)
C7C C -0.0530(5) 0.2380(5) 0.1158(5)
C8C C -0.0238(5) 0.2895(5) 0.0737(5)
C4C C 0.0772(5) 0.3134(5) 0.0160(6)
C5C C 0.0836(5) 0.2589(5) -0.0314(5)
H1C H 0.16520 0.21930 0.00180
H11C H 0.10420 0.27480 -0.07110
H12C H 0.04050 0.24260 -0.04270
H9C H 0.04910 0.34720 -0.00190
H10C H 0.11980 0.33240 0.02460
H17C H -0.03720 0.28270 0.02870
H18C H -0.03940 0.33210 0.08760
H15C H -0.04810 0.25010 0.16140
H16C H -0.09940 0.23420 0.10640
H2C H -0.03510 0.16280 0.06370
H13H H -0.08890 0.13110 0.15900
H14H H -0.04060 0.08180 0.12520
H1H H 0.00180 0.16520 0.21930
H7H H 0.12790 0.06580 0.37090
H8H H 0.17340 0.04480 0.31290
H5H H 0.19160 0.15260 0.33500
H6H H 0.11670 0.16850 0.32820
H3H H 0.09800 0.22860 0.24030
H4H H 0.17010 0.24960 0.25640
H5C H 0.15260 0.33500 0.19160
H6C H 0.16850 0.32820 0.11670
H7C H 0.06580 0.37090 0.12790
H8C H 0.04480 0.31290 0.17340
H13C H 0.13110 0.15900 -0.08890
H14C H 0.08180 0.12520 -0.04060
H3C H 0.22860 0.24030 0.09800
H4C H 0.24960 0.25640 0.17010
N5H N -0.0589(3) -0.0543(3) -0.1404(3)
Cu2H Cu -0.11830(5) -0.10410(5) -0.21791(5)
Cu2C Cu -0.10410(5) -0.21791(5) -0.11830(5)
N5C N -0.0543(3) -0.1404(3) -0.0589(3)
C9C C -0.0950(4) -0.1007(4) -0.0161(4)
C14C C -0.2385(4) -0.2669(5) -0.0796(4)
N7C N -0.1727(3) -0.2610(4) -0.0522(4)
N6C N -0.0395(4) -0.2800(4) -0.0744(3)
C11C C 0.0169(5) -0.2387(5) -0.0507(4)
C10C C -0.0087(4) -0.1781(5) -0.0166(4)
C9H C -0.0161(4) -0.0950(4) -0.1007(4)
C10H C -0.0166(4) -0.0087(5) -0.1781(4)
C11H C -0.0507(5) 0.0169(5) -0.2387(4)
N6H N -0.0744(4) -0.0395(4) -0.2800(3)
N7H N -0.0522(3) -0.1727(4) -0.2610(4)
C13H C -0.0368(4) -0.1419(5) -0.3251(5)
C12H C -0.0189(5) -0.0724(5) -0.3124(5)
C16H C -0.1225(5) -0.0160(5) -0.3290(4)
C15H C -0.1893(5) -0.0139(5) -0.3015(5)
N8H N -0.2040(4) -0.0776(4) -0.2704(4)
H20H H -0.20690 -0.10680 -0.30390
H33H H -0.22070 -0.00520 -0.33600
H34H H -0.19240 0.02080 -0.26940
H35H H -0.11010 0.02740 -0.34350
H36H H -0.12190 -0.04480 -0.36670
H27H H 0.01950 -0.07040 -0.28460
H28H H -0.00890 -0.05050 -0.35330
H29H H -0.07460 -0.14410 -0.35380
H30H H -0.00070 -0.16450 -0.34600
C14H C -0.0796(4) -0.2385(5) -0.2669(4)
N8C N -0.0776(4) -0.2704(4) -0.2040(4)
C15C C -0.0139(5) -0.3015(5) -0.1893(5)
C16C C -0.0160(5) -0.3290(5) -0.1225(4)
C12C C -0.0724(5) -0.3124(5) -0.0189(5)
C13C C -0.1419(4) -0.3251(5) -0.0368(5)
H19C H -0.17450 -0.23650 -0.01510
H29C H -0.14410 -0.35380 -0.07460
H30C H -0.16450 -0.34600 -0.00070
H27C H -0.07040 -0.28460 0.01950
H28C H -0.05050 -0.35330 -0.00890
H35C H 0.02740 -0.34350 -0.11010
H36C H -0.04480 -0.36670 -0.12190
H33C H -0.00520 -0.33600 -0.22070
H34C H 0.02080 -0.26940 -0.19240
H20C H -0.10680 -0.30390 -0.20690
H31H H -0.12450 -0.23590 -0.28220
H32H H -0.05460 -0.26360 -0.29850
H19H H -0.01510 -0.17450 -0.23650
H25H H -0.08760 0.04400 -0.22600
H26H H -0.02070 0.04370 -0.26390
H23H H 0.02320 -0.03120 -0.19090
H24H H -0.00440 0.02780 -0.15040
H21H H 0.01090 -0.06730 -0.07330
H22H H 0.01250 -0.12000 -0.12910
H23C H -0.03120 -0.19090 0.02320
H24C H 0.02780 -0.15040 -0.00440
H25C H 0.04400 -0.22600 -0.08760
H26C H 0.04370 -0.26390 -0.02070
H31C H -0.23590 -0.28220 -0.12450
H32C H -0.26360 -0.29850 -0.05460
H21C H -0.06730 -0.07330 0.01090
H22C H -0.12000 -0.12910 0.01250
O4C O 0.5643(4) 0.4735(4) 0.5306(4)
O4H O 0.5306(4) 0.5643(4) 0.4735(4)
O6C O 0.3480(7) 0.2919(4) 0.2598(5)
O6H O 0.2598(7) 0.3480(4) 0.2919(5)
#END

data_CSD_CIF_TANYEM
_audit_creation_date 1992-04-28
_audit_creation_method CSD-ConQuest-V1
_database_code_CSD TANYEM
_database_code_depnum_ccdc_archive 'CCDC 1266312'
_chemical_formula_sum 'C3 Fe1 N1 O4 Tl1'
_chemical_formula_moiety
;
C3 Fe1 N1 O4 1-,Tl1 1+
;
_journal_coeditor_code "IUCr AL0488"
_journal_coden_Cambridge 591
_journal_volume 48
_journal_year 1992
_journal_page_first 236
_journal_name_full 'Acta Crystallogr.,Sect.C:Cryst.Struct.Commun. '
loop_
_publ_author_name
"L.M.Clarkson"
"W.Clegg"
"D.C.R.Hockless"
"N.C.Norman"
_chemical_name_systematic
;
Thallium(i) tricarbonyl-nitrosyl-iron
;
_cell_volume    693.859
_exptl_crystal_colour 'dark red'
_exptl_crystal_density_diffrn 3.582
_diffrn_ambient_temperature ?
_diffrn_special_details
;
The study was carried out at room temperature,in the range 283-303K

;
#These two values have been output from a single CSD field.
_refine_ls_R_factor_gt 0.0197
_refine_ls_wR_factor_gt 0.0197
_symmetry_cell_setting cubic
_symmetry_space_group_name_H-M 'P 21 3'
_symmetry_Int_Tables_number 198
loop_
_symmetry_equiv_pos_site_id
_symmetry_equiv_pos_as_xyz
1 x,y,z
2 z,x,y
3 y,z,x
4 1/2+x,1/2-y,-z
5 1/2+z,1/2-x,-y
6 1/2+y,1/2-z,-x
7 -x,1/2+y,1/2-z
8 -z,1/2+x,1/2-y
9 -y,1/2+z,1/2-x
10 1/2-x,-y,1/2+z
11 1/2-z,-x,1/2+y
12 1/2-y,-z,1/2+x
_cell_length_a 8.853(1)
_cell_length_b 8.853(1)
_cell_length_c 8.853(1)
_cell_angle_alpha 90
_cell_angle_beta 90
_cell_angle_gamma 90
_cell_formula_units_Z 4
loop_
_atom_type_symbol
_atom_type_radius_bond
C 0.68
Fe 1.34
N 0.68
O 0.68
Tl 1.55
loop_
_atom_site_label
_atom_site_type_symbol
_atom_site_fract_x
_atom_site_fract_y
_atom_site_fract_z
Tl1 Tl 0.06568(3) 0.06568(3) 0.06568(3)
Fe1 Fe 0.55776(12) 0.55776(12) 0.55776(12)
N1 N 0.6659(7) 0.6659(7) 0.6659(7)
O1 O 0.7450(6) 0.7450(6) 0.7450(6)
C1 C 0.5939(8) 0.3578(9) 0.5633(10)
O2 O 0.6177(8) 0.2300(6) 0.5631(7)
C1A C 0.5633(8) 0.5939(9) 0.3578(10)
C1B C 0.3578(8) 0.5633(9) 0.5939(10)
O2A O 0.5631(8) 0.6177(6) 0.2300(7)
O2B O 0.2300(8) 0.5631(6) 0.6177(7)
#END

data_CSD_CIF_TAVVOE
_audit_creation_date 2017-03-30
_audit_creation_method CSD-ConQuest-V1
_database_code_CSD TAVVOE
_database_code_depnum_ccdc_archive 'CCDC 1448440'
_chemical_formula_sum 'C19 H39 Cl1 Co1 N2 O4 S4'
_chemical_formula_moiety
;
C19 H39 Co1 N2 S4 1+,Cl1 O4 1-
;
_journal_coden_Cambridge 9
_journal_volume 56
_journal_year 2017
_journal_page_first 1104
_journal_name_full 'Inorg.Chem. '
loop_
_publ_author_name
"Feng Shao"
"B.Cahier"
"E.Riviere"
"R.Guillot"
"N.Guihery"
"V.E.Campbell"
"T.Mallah"
_chemical_name_systematic
;
(2-(t-butylsulfanyl)-N,N-bis(2-(t-butylsulfanyl)ethyl)ethanamine)-(isothiocyan
ato)-cobalt(ii) perchlorate
;
_cell_volume   2833.629
_exptl_crystal_colour 'orange'
_exptl_crystal_density_diffrn 1.365
_exptl_special_details
;
Absolute configuration

;
_exptl_crystal_description 'block'
_diffrn_ambient_temperature 100
#These two values have been output from a single CSD field.
_refine_ls_R_factor_gt 0.0493
_refine_ls_wR_factor_gt 0.0493
_symmetry_cell_setting cubic
_symmetry_space_group_name_H-M 'P 21 3'
_symmetry_Int_Tables_number 198
loop_
_symmetry_equiv_pos_site_id
_symmetry_equiv_pos_as_xyz
1 x,y,z
2 1/2-x,-y,1/2+z
3 -x,1/2+y,1/2-z
4 1/2+x,1/2-y,-z
5 z,x,y
6 1/2+z,1/2-x,-y
7 1/2-z,-x,1/2+y
8 -z,1/2+x,1/2-y
9 y,z,x
10 -y,1/2+z,1/2-x
11 1/2+y,1/2-z,-x
12 1/2-y,-z,1/2+x
_cell_length_a 14.1508(5)
_cell_length_b 14.1508(5)
_cell_length_c 14.1508(5)
_cell_angle_alpha 90
_cell_angle_beta 90
_cell_angle_gamma 90
_cell_formula_units_Z 4
loop_
_atom_type_symbol
_atom_type_radius_bond
C 0.68
H 0.23
Cl 0.99
Co 1.26
N 0.68
O 0.68
S 1.02
loop_
_atom_site_label
_atom_site_type_symbol
_atom_site_fract_x
_atom_site_fract_y
_atom_site_fract_z
C1 C 0.5610(4) 0.0610(4) 0.4390(4)
C2 C 0.7738(4) 0.3848(3) 0.2435(3)
H1 H 0.71560 0.41080 0.21470
H2 H 0.82820 0.42090 0.21830
C3 C 0.7692(5) 0.3974(4) 0.3495(4)
H3 H 0.76460 0.46530 0.36560
H4 H 0.82670 0.37130 0.37950
C4 C 0.6835(4) 0.3279(3) 0.5204(3)
C5 C 0.7624(5) 0.2590(5) 0.5451(4)
H5 H 0.82080 0.27850 0.51350
H6 H 0.74490 0.19540 0.52390
H7 H 0.77220 0.25860 0.61360
C6 C 0.7047(6) 0.4268(4) 0.5569(4)
H8 H 0.65690 0.47090 0.53320
H9 H 0.76730 0.44650 0.53470
H10 H 0.70370 0.42650 0.62610
C7 C 0.5883(4) 0.2929(4) 0.5593(4)
H11 H 0.59260 0.28610 0.62810
H12 H 0.57290 0.23160 0.53090
H13 H 0.53870 0.33870 0.54360
N1 N 0.7837(2) 0.2837(2) 0.2163(2)
N2 N 0.6064(3) 0.1064(3) 0.3936(3)
S1 S 0.66536(9) 0.33500(8) 0.39059(8)
S2 S 0.49472(12) -0.00528(12) 0.50528(12)
Co1 Co 0.68801(4) 0.18801(4) 0.31199(4)
O1 O 0.7835(2) 0.7165(2) 0.2835(2)
O2 O 0.7861(2) 0.6199(3) 0.4182(2)
Cl1 Cl 0.84227(7) 0.65773(7) 0.34227(7)
C2G C 0.7565(4) 0.2738(3) 0.1152(3)
H1G H 0.78530 0.21560 0.08920
H2G H 0.78170 0.32820 0.07910
C3G C 0.6505(5) 0.2692(4) 0.1026(4)
H3G H 0.63440 0.26460 0.03470
H4G H 0.62050 0.32670 0.12870
C4G C 0.4796(4) 0.1835(3) 0.1721(3)
C5G C 0.4549(5) 0.2624(5) 0.2410(4)
H5G H 0.48650 0.32080 0.22150
H6G H 0.47610 0.24490 0.30460
H7G H 0.38640 0.27220 0.24140
C6G C 0.4431(6) 0.2047(4) 0.0732(4)
H8G H 0.46680 0.15690 0.02910
H9G H 0.46530 0.26730 0.05350
H10G H 0.37390 0.20370 0.07350
C7G C 0.4407(4) 0.0883(4) 0.2071(4)
H11G H 0.37190 0.09260 0.21390
H12G H 0.46910 0.07290 0.26840
H13G H 0.45640 0.03870 0.16130
S1G S 0.60941(9) 0.16536(8) 0.16500(8)
C2J C 0.8848(4) 0.2565(3) 0.2262(3)
H1J H 0.91080 0.28530 0.28440
H2J H 0.92090 0.28170 0.17180
C3J C 0.8974(5) 0.1505(4) 0.2308(4)
H3J H 0.96530 0.13440 0.23540
H4J H 0.87130 0.12050 0.17330
C4J C 0.8279(4) -0.0204(3) 0.3165(3)
C5J C 0.7590(5) -0.0451(5) 0.2376(4)
H5J H 0.77850 -0.01350 0.17920
H6J H 0.69540 -0.02390 0.25510
H7J H 0.75860 -0.11360 0.22780
C6J C 0.9268(6) -0.0569(4) 0.2953(4)
H8J H 0.97090 -0.03320 0.34310
H9J H 0.94650 -0.03470 0.23270
H10J H 0.92650 -0.12610 0.29630
C7J C 0.7929(4) -0.0593(4) 0.4117(4)
H11J H 0.78610 -0.12810 0.40740
H12J H 0.73160 -0.03090 0.42710
H13J H 0.83870 -0.04360 0.46130
S1J S 0.83500(9) 0.10941(8) 0.33464(8)
O2E O 0.9182(2) 0.7139(3) 0.3801(2)
O2K O 0.8801(2) 0.5818(3) 0.2861(2)
#END

data_CSD_CIF_TIJDEW
_audit_creation_date 2008-01-10
_audit_creation_method CSD-ConQuest-V1
_database_code_CSD TIJDEW
_database_code_depnum_ccdc_archive 'CCDC 650053'
_chemical_formula_sum 'C39 H51 Br1 Cl8 Fe2 N6'
_chemical_formula_moiety
;
C39 H51 N6 3+,Br1 1-,2(Cl4 Fe1 1-)
;
_journal_coden_Cambridge 182
_journal_year 2007
_journal_page_first 3634
_journal_name_full 'Chem.Commun. '
loop_
_publ_author_name
"C.E.Willans"
"K.M.Anderson"
"P.C.Junk"
"L.J.Barbour"
"J.W.Steed"
_chemical_name_systematic
;
1^2^,1^4^,1^6^,5^2^,5^4^,5^6^-Hexaethyl-1,5(1,3,5)-tribenzena-3,7,10(1,3)-tri-
imidazoliabicyclo(3.3.3)undecaphane bromide bis(tetrachloro-iron(iii))
;
_cell_volume   4576.942
_exptl_crystal_colour 'orange'
_exptl_crystal_density_diffrn 1.566
_exptl_crystal_description 'triangular plate'
_diffrn_ambient_temperature 120
#These two values have been output from a single CSD field.
_refine_ls_R_factor_gt 0.0467
_refine_ls_wR_factor_gt 0.0467
_symmetry_cell_setting cubic
_symmetry_space_group_name_H-M 'P 21 3'
_symmetry_Int_Tables_number 198
loop_
_symmetry_equiv_pos_site_id
_symmetry_equiv_pos_as_xyz
1 x,y,z
2 z,x,y
3 y,z,x
4 1/2-y,-z,1/2+x
5 1/2+z,1/2-x,-y
6 -y,1/2+z,1/2-x
7 1/2-z,-x,1/2+y
8 -z,1/2+x,1/2-y
9 1/2+y,1/2-z,-x
10 1/2-x,-y,1/2+z
11 1/2+x,1/2-y,-z
12 -x,1/2+y,1/2-z
_cell_length_a 16.6032(7)
_cell_length_b 16.6032(7)
_cell_length_c 16.6032(7)
_cell_angle_alpha 90
_cell_angle_beta 90
_cell_angle_gamma 90
_cell_formula_units_Z 4
loop_
_atom_type_symbol
_atom_type_radius_bond
C 0.68
H 0.23
Br 1.21
Cl 0.99
Fe 1.34
N 0.68
loop_
_atom_site_label
_atom_site_type_symbol
_atom_site_fract_x
_atom_site_fract_y
_atom_site_fract_z
Br1 Br 0.78514(4) 0.78514(4) 0.78514(4)
Fe1 Fe 0.25509(4) 0.25509(4) 0.25509(4)
Fe2 Fe 0.05316(6) 0.44684(6) 0.55316(6)
Cl1 Cl 0.22126(8) 0.31631(7) 0.14290(7)
Cl2 Cl 0.33125(7) 0.33125(7) 0.33125(7)
Cl3 Cl -0.02374(9) 0.52374(9) 0.47626(9)
Cl4 Cl 0.13073(8) 0.52580(9) 0.62564(12)
N1 N 0.4384(2) 0.5650(2) 0.7251(2)
N2 N 0.3634(2) 0.4898(2) 0.6494(2)
C1 C 0.4087(3) 0.2529(3) 0.5530(3)
H1 H 0.35280 0.26740 0.54100
H2 H 0.40990 0.21520 0.59850
H3 H 0.43310 0.22740 0.50570
C2 C 0.4551(3) 0.3272(3) 0.5744(3)
H4 H 0.43300 0.35010 0.62480
H5 H 0.51200 0.31240 0.58450
C3 C 0.4522(3) 0.3898(3) 0.5100(3)
C4 C 0.3913(3) 0.4487(3) 0.5098(3)
C5 C 0.3294(3) 0.4497(3) 0.5778(3)
H6 H 0.28040 0.47860 0.55990
H7 H 0.31390 0.39380 0.59160
C6 C 0.4246(3) 0.5403(3) 0.6500(3)
H8 H 0.45430 0.55660 0.60390
C7 C 0.3351(3) 0.4826(3) 0.7252(3)
H9 H 0.29100 0.45030 0.74210
C8 C 0.3819(3) 0.5303(3) 0.7731(3)
H10 H 0.37610 0.53780 0.82950
C9 C 0.5034(3) 0.6217(3) 0.7507(3)
H11 H 0.52710 0.60300 0.80210
H12 H 0.48030 0.67590 0.75950
C10 C 0.5682(3) 0.6263(3) 0.6873(3)
C11 C 0.6282(3) 0.5659(3) 0.6865(3)
C12 C 0.6303(3) 0.5020(3) 0.7513(3)
H13 H 0.65310 0.45160 0.72890
H14 H 0.57480 0.49050 0.77000
C13 C 0.6821(3) 0.5303(3) 0.8231(3)
H15 H 0.73690 0.54170 0.80450
H16 H 0.68360 0.48790 0.86420
H17 H 0.65850 0.57920 0.84620
Cl1A Cl 0.14290(8) 0.22126(7) 0.31631(7)
Cl1B Cl 0.31631(8) 0.14290(7) 0.22126(7)
Cl4C Cl -0.02580(8) 0.37436(9) 0.63073(12)
Cl4D Cl 0.12564(8) 0.36927(9) 0.47420(12)
N1B N 0.5650(2) 0.7251(2) 0.4384(2)
N1A N 0.7251(2) 0.4384(2) 0.5650(2)
N2B N 0.4898(2) 0.6494(2) 0.3634(2)
N2A N 0.6494(2) 0.3634(2) 0.4898(2)
C1A C 0.5530(3) 0.4087(3) 0.2529(3)
C1B C 0.2529(3) 0.5530(3) 0.4087(3)
H1A H 0.54100 0.35280 0.26740
H1B H 0.26740 0.54100 0.35280
H2A H 0.59850 0.40990 0.21520
H2B H 0.21520 0.59850 0.40990
H3A H 0.50570 0.43310 0.22740
H3B H 0.22740 0.50570 0.43310
C2A C 0.5744(3) 0.4551(3) 0.3272(3)
C2B C 0.3272(3) 0.5744(3) 0.4551(3)
H4A H 0.62480 0.43300 0.35010
H4B H 0.35010 0.62480 0.43300
H5A H 0.58450 0.51200 0.31240
H5B H 0.31240 0.58450 0.51200
C3A C 0.5100(3) 0.4522(3) 0.3898(3)
C3B C 0.3898(3) 0.5100(3) 0.4522(3)
C4A C 0.5098(3) 0.3913(3) 0.4487(3)
C4B C 0.4487(3) 0.5098(3) 0.3913(3)
C5B C 0.4497(3) 0.5778(3) 0.3294(3)
C5A C 0.5778(3) 0.3294(3) 0.4497(3)
H6A H 0.55990 0.28040 0.47860
H6B H 0.47860 0.55990 0.28040
H7A H 0.59160 0.31390 0.39380
H7B H 0.39380 0.59160 0.31390
C6B C 0.5403(3) 0.6500(3) 0.4246(3)
C6A C 0.6500(3) 0.4246(3) 0.5403(3)
H8A H 0.60390 0.45430 0.55660
H8B H 0.55660 0.60390 0.45430
C7B C 0.4826(3) 0.7252(3) 0.3351(3)
C7A C 0.7252(3) 0.3351(3) 0.4826(3)
H9B H 0.45030 0.74210 0.29100
H9A H 0.74210 0.29100 0.45030
C8B C 0.5303(3) 0.7731(3) 0.3819(3)
C8A C 0.7731(3) 0.3819(3) 0.5303(3)
H10B H 0.53780 0.82950 0.37610
H10A H 0.82950 0.37610 0.53780
C9B C 0.6217(3) 0.7507(3) 0.5034(3)
C9A C 0.7507(3) 0.5034(3) 0.6217(3)
H11B H 0.60300 0.80210 0.52710
H11A H 0.80210 0.52710 0.60300
H12B H 0.67590 0.75950 0.48030
H12A H 0.75950 0.48030 0.67590
C10B C 0.6263(3) 0.6873(3) 0.5682(3)
C10A C 0.6873(3) 0.5682(3) 0.6263(3)
C11B C 0.5659(3) 0.6865(3) 0.6282(3)
C11A C 0.6865(3) 0.6282(3) 0.5659(3)
C12A C 0.7513(3) 0.6303(3) 0.5020(3)
C12B C 0.5020(3) 0.7513(3) 0.6303(3)
H13A H 0.72890 0.65310 0.45160
H13B H 0.45160 0.72890 0.65310
H14A H 0.77000 0.57480 0.49050
H14B H 0.49050 0.77000 0.57480
C13A C 0.8231(3) 0.6821(3) 0.5303(3)
C13B C 0.5303(3) 0.8231(3) 0.6821(3)
H15A H 0.80450 0.73690 0.54170
H15B H 0.54170 0.80450 0.73690
H16A H 0.86420 0.68360 0.48790
H16B H 0.48790 0.86420 0.68360
H17A H 0.84620 0.65850 0.57920
H17B H 0.57920 0.84620 0.65850
#END

data_CSD_CIF_TIXGOY
_audit_creation_date 2014-02-18
_audit_creation_method CSD-ConQuest-V1
_database_code_CSD TIXGOY
_database_code_depnum_ccdc_archive 'CCDC 948435'
_chemical_formula_sum 'C24 H58 I4 N2 O13 Zn4'
_chemical_formula_moiety
;
C18 H38 N2 O6 2+,C6 H18 I4 O6 Zn4 2-,H2 O1
;
_journal_coden_Cambridge 440
_journal_volume 38
_journal_year 2014
_journal_page_first 1385
_journal_name_full 'New J.Chem. '
loop_
_publ_author_name
"J.Marti-Rujas"
"M.Cametti"
_chemical_name_systematic
;
4,7,13,16,21,24-Hexaoxa-1,10-diazoniabicyclo[8.8.8]hexacosane 
hexakis(\m~2~-methoxo)-tetrakis(iodo)-tetra-zinc monohydrate
;
_chemical_name_common
;
dihydrogen (2,2,2-Cryptand) hexakis(mu!2$-methoxo)-tetrakis(iodo)-tetra-zinc 
monohydrate
;
_cell_volume   4348.946
_exptl_crystal_density_diffrn 2.04
_diffrn_ambient_temperature 100
#These two values have been output from a single CSD field.
_refine_ls_R_factor_gt 0.0316
_refine_ls_wR_factor_gt 0.0316
_symmetry_cell_setting cubic
_symmetry_space_group_name_H-M 'P 21 3'
_symmetry_Int_Tables_number 198
loop_
_symmetry_equiv_pos_site_id
_symmetry_equiv_pos_as_xyz
1 x,y,z
2 z,x,y
3 y,z,x
4 1/2-y,-z,1/2+x
5 1/2+z,1/2-x,-y
6 -y,1/2+z,1/2-x
7 1/2-z,-x,1/2+y
8 -z,1/2+x,1/2-y
9 1/2+y,1/2-z,-x
10 1/2+x,1/2-y,-z
11 -x,1/2+y,1/2-z
12 1/2-x,-y,1/2+z
_cell_length_a 16.3228(18)
_cell_length_b 16.3228(18)
_cell_length_c 16.3228(18)
_cell_angle_alpha 90
_cell_angle_beta 90
_cell_angle_gamma 90
_cell_formula_units_Z 4
loop_
_atom_type_symbol
_atom_type_radius_bond
C 0.68
H 0.23
I 1.40
N 0.68
O 0.68
Zn 1.22
loop_
_atom_site_label
_atom_site_type_symbol
_atom_site_fract_x
_atom_site_fract_y
_atom_site_fract_z
Zn1 Zn 0.09900(5) 0.09900(5) 0.09900(5)
I1 I 0.44105(3) 0.09599(3) 0.13093(3)
I2 I 0.00791(3) 0.00791(3) 0.00791(3)
Zn2 Zn 0.29170(6) 0.13831(6) 0.15721(6)
O1 O 0.2719(3) 0.2542(3) 0.1277(3)
O2 O 0.2145(3) 0.0693(3) 0.0971(3)
C1 C 0.2328(5) -0.0155(4) 0.0955(5)
H1 H 0.22230 -0.03930 0.14960
H2 H 0.29060 -0.02320 0.08110
H3 H 0.19820 -0.04260 0.05460
C2 C 0.3316(4) 0.3081(4) 0.1513(4)
H4 H 0.32400 0.32240 0.20910
H5 H 0.32820 0.35770 0.11770
H6 H 0.38550 0.28270 0.14390
O3 O 0.3796(3) 0.1740(3) 0.6997(3)
O4 O 0.2803(4) 0.2643(5) 0.5890(4)
C3 C 0.3981(5) 0.0769(5) 0.8040(4)
H7 H 0.35550 0.03850 0.78430
H8 H 0.43930 0.04510 0.83510
N1 N 0.1429(4) 0.3571(4) 0.6429(4)
C4 C 0.2407(6) 0.3172(7) 0.5308(5)
H9 H 0.20120 0.28490 0.49790
H10 H 0.28220 0.34020 0.49300
N2 N 0.3595(4) 0.1405(4) 0.8595(4)
C5 C 0.4389(5) 0.1184(5) 0.7313(5)
H11 H 0.48880 0.14810 0.74880
H12 H 0.45440 0.07740 0.68930
C6 C 0.3501(7) 0.2936(6) 0.6172(7)
H13 H 0.34030 0.32370 0.66890
H14 H 0.37370 0.33240 0.57690
C7 C 0.1964(5) 0.3858(6) 0.5730(5)
H15 H 0.16200 0.41500 0.53250
H16 H 0.23720 0.42530 0.59440
C8 C 0.4122(5) 0.2213(5) 0.6330(5)
H17 H 0.41760 0.18690 0.58330
H18 H 0.46690 0.24320 0.64740
H19 H 0.1750(8) 0.3250(8) 0.6750(8)
H20 H 0.3274(8) 0.1726(8) 0.8274(8)
O5 O 0.4036(16) 0.4036(16) 0.4036(16)
I1A I 0.13093(3) 0.44105(3) 0.09599(3)
Zn2A Zn 0.15721(6) 0.29170(6) 0.13831(6)
O1A O 0.1277(3) 0.2719(3) 0.2542(3)
O2A O 0.0971(3) 0.2145(3) 0.0693(3)
C1A C 0.0955(5) 0.2328(4) -0.0155(5)
H1A H 0.14960 0.22230 -0.03930
H2A H 0.08110 0.29060 -0.02320
H3A H 0.05460 0.19820 -0.04260
C2A C 0.1513(4) 0.3316(4) 0.3081(4)
H4A H 0.20910 0.32400 0.32240
H5A H 0.11770 0.32820 0.35770
H6A H 0.14390 0.38550 0.28270
I1B I 0.09599(3) 0.13093(3) 0.44105(3)
Zn2B Zn 0.13831(6) 0.15721(6) 0.29170(6)
O1B O 0.2542(3) 0.1277(3) 0.2719(3)
O2B O 0.0693(3) 0.0971(3) 0.2145(3)
C1B C -0.0155(5) 0.0955(4) 0.2328(5)
H1B H -0.03930 0.14960 0.22230
H2B H -0.02320 0.08110 0.29060
H3B H -0.04260 0.05460 0.19820
C2B C 0.3081(4) 0.1513(4) 0.3316(4)
H4B H 0.32240 0.20910 0.32400
H5B H 0.35770 0.11770 0.32820
H6B H 0.28270 0.14390 0.38550
O3C O 0.3260(3) 0.3003(3) 0.8796(3)
O4C O 0.2357(4) 0.4110(5) 0.7803(4)
C3C C 0.4231(5) 0.1960(5) 0.8981(4)
H7C H 0.46150 0.21570 0.85550
H8C H 0.45490 0.16490 0.93930
C4C C 0.1828(6) 0.4692(7) 0.7407(5)
H9C H 0.21510 0.50210 0.70120
H10C H 0.15980 0.50700 0.78220
C5C C 0.3816(5) 0.2687(5) 0.9389(5)
H11C H 0.35190 0.25120 0.98880
H12C H 0.42260 0.31070 0.95440
C6C C 0.2064(7) 0.3828(6) 0.8501(7)
H13C H 0.17630 0.33110 0.84030
H14C H 0.16760 0.42310 0.87370
C7C C 0.1142(5) 0.4270(6) 0.6964(5)
H15C H 0.08500 0.46750 0.66200
H16C H 0.07470 0.40560 0.73720
C8C C 0.2787(5) 0.3670(5) 0.9122(5)
H17C H 0.31310 0.41670 0.91760
H18C H 0.25680 0.35260 0.96690
O3D O 0.1997(3) 0.1204(3) 0.8260(3)
O4D O 0.0890(4) 0.2197(5) 0.7357(4)
C3D C 0.3040(5) 0.1019(5) 0.9231(4)
H7D H 0.28430 0.14450 0.96150
H8D H 0.33510 0.06070 0.95490
C4D C 0.0308(6) 0.2593(7) 0.6828(5)
H9D H -0.00210 0.29880 0.71510
H10D H -0.00700 0.21780 0.65980
C5D C 0.2313(5) 0.0611(5) 0.8816(5)
H11D H 0.24880 0.01120 0.85190
H12D H 0.18930 0.04560 0.92260
C6D C 0.1172(7) 0.1499(6) 0.7064(7)
H13D H 0.16890 0.15970 0.67630
H14D H 0.07690 0.12630 0.66760
C7D C 0.0730(5) 0.3036(6) 0.6142(5)
H15D H 0.03250 0.33800 0.58500
H16D H 0.09440 0.26280 0.57470
C8D C 0.1330(5) 0.0878(5) 0.7787(5)
H17D H 0.08330 0.08240 0.81310
H18D H 0.14740 0.03310 0.75680
#END

data_CSD_CIF_TORMUK
_audit_creation_date 2014-12-17
_audit_creation_method CSD-ConQuest-V1
_database_code_CSD TORMUK
_database_code_depnum_ccdc_archive 'CCDC 976650'
_chemical_formula_sum 'C51 H57 Cl2 N9 Ni1 O11'
_chemical_formula_moiety
;
C45 H48 N6 Ni1 O3 2+,3(C2 H3 N1),2(Cl1 O4 1-)
;
_journal_coden_Cambridge 702
_journal_volume 30
_journal_year 2014
_journal_page_first 1748
_journal_name_full 'Wuji Huaxue Xuebao(Chin.)(Chin.J.Inorg.Chem.) '
loop_
_publ_author_name
"Fei-Fei Bao"
"Xin-Xin Xu"
"Wen Zhou"
"Chun-Yan Pang"
"Sai-Fei Xi"
"Zhi-Guo Gu"
"Zai-Jun Li"
_chemical_name_systematic
;
tris((S)-N-(1-(4-methoxyphenyl)ethyl)-1-(pyridin-2-yl)methanimine)-nickel(ii) 
diperchlorate acetonitrile solvate
;
_cell_volume   5413.209
_exptl_crystal_colour 'yellow'
_exptl_crystal_density_diffrn 1.352
_exptl_crystal_description 'block'
_diffrn_ambient_temperature 296
#These two values have been output from a single CSD field.
_refine_ls_R_factor_gt 0.0436
_refine_ls_wR_factor_gt 0.0436
loop_
_citation_database_id_CSD
_citation_special_details
TORMOE "is a stereoisomer of this entry"
_symmetry_cell_setting cubic
_symmetry_space_group_name_H-M 'P 21 3'
_symmetry_Int_Tables_number 198
loop_
_symmetry_equiv_pos_site_id
_symmetry_equiv_pos_as_xyz
1 x,y,z
2 1/2-x,-y,1/2+z
3 -x,1/2+y,1/2-z
4 1/2+x,1/2-y,-z
5 z,x,y
6 1/2+z,1/2-x,-y
7 1/2-z,-x,1/2+y
8 -z,1/2+x,1/2-y
9 y,z,x
10 -y,1/2+z,1/2-x
11 1/2+y,1/2-z,-x
12 1/2-y,-z,1/2+x
_cell_length_a 17.5584(19)
_cell_length_b 17.5584(19)
_cell_length_c 17.5584(19)
_cell_angle_alpha 90
_cell_angle_beta 90
_cell_angle_gamma 90
_cell_formula_units_Z 4
loop_
_atom_type_symbol
_atom_type_radius_bond
C 0.68
H 0.23
Cl 0.99
N 0.68
Ni 1.24
O 0.68
loop_
_atom_site_label
_atom_site_type_symbol
_atom_site_fract_x
_atom_site_fract_y
_atom_site_fract_z
Ni1 Ni 0.086570(17) 0.586570(17) 0.913430(17)
C1 C -0.03589(18) 0.46102(17) 0.88671(18)
H1 H -0.00340 0.42780 0.91210
C2 C -0.10617(19) 0.43405(18) 0.8621(2)
H2 H -0.12000 0.38360 0.87050
C3 C -0.1544(2) 0.4824(2) 0.8255(2)
H3 H -0.20190 0.46570 0.80910
C4 C -0.13158(19) 0.5574(2) 0.8127(2)
H4 H -0.16340 0.59140 0.78750
C5 C -0.06057(15) 0.57982(17) 0.83839(16)
C6 C -0.03130(17) 0.65692(16) 0.82451(17)
H5 H -0.06030 0.69180 0.79710
C7 C 0.0193(3) 0.79843(19) 0.7745(2)
H6 H 0.01430 0.76860 0.72890
H7 H 0.04580 0.84480 0.76300
H8 H -0.03030 0.81020 0.79410
C8 C 0.06403(17) 0.75349(15) 0.83374(17)
H9 H 0.11600 0.74740 0.81430
C9 C 0.06907(16) 0.79887(14) 0.90706(17)
C10 C 0.13580(16) 0.83711(17) 0.92506(19)
H10 H 0.17780 0.83280 0.89310
C11 C 0.14085(19) 0.88217(19) 0.9907(2)
H11 H 0.18650 0.90590 1.00310
C12 C 0.00594(18) 0.80925(18) 0.95375(19)
H12 H -0.03970 0.78540 0.94140
C13 C 0.00987(19) 0.8542(2) 1.0179(2)
H13 H -0.03270 0.86010 1.04890
C14 C 0.0785(2) 0.89113(18) 1.03642(19)
C15 C 0.1460(3) 0.9710(3) 1.1239(3)
H14 H 0.18470 0.93330 1.13240
H15 H 0.13780 0.99930 1.17000
H16 H 0.16210 1.00500 1.08430
N1 N 0.03401(13) 0.67599(12) 0.85015(13)
N2 N -0.01323(13) 0.53233(13) 0.87551(13)
O1 O 0.07598(17) 0.93391(17) 1.10159(16)
Cl1 Cl 0.79042(4) 0.70958(4) 0.29042(4)
O2 O 0.7954(6) 0.6491(5) 0.2451(7)
O3 O 0.74633(17) 0.75367(17) 0.24633(17)
Cl2 Cl 0.25871(7) 0.74129(7) 0.24129(7)
O4 O 0.3025(5) 0.6975(5) 0.1975(5)
O5 O 0.2256(4) 0.7900(3) 0.1905(4)
C16 C 0.9747(5) 0.3420(4) 0.2357(5)
H17 H 0.98580 0.34010 0.28920
H18 H 1.00930 0.30940 0.20870
H19 H 0.92340 0.32520 0.22720
C17 C 0.9831(3) 0.4187(3) 0.2089(3)
N3 N 0.9906(5) 0.4763(4) 0.1895(4)
C1G C 0.11329(18) 0.46411(17) 1.03898(18)
H1G H 0.08790 0.49660 1.07220
C2G C 0.13790(19) 0.39383(18) 1.06595(20)
H2G H 0.12950 0.38000 1.11640
C3G C 0.1745(2) 0.3456(2) 1.0176(2)
H3G H 0.19090 0.29810 1.03430
C4G C 0.18730(19) 0.36842(20) 0.9426(2)
H4G H 0.21250 0.33660 0.90860
C5G C 0.16161(15) 0.43943(17) 0.92018(16)
C6G C 0.17549(17) 0.46870(16) 0.84308(17)
H5G H 0.20290 0.43970 0.80820
C7G C 0.2255(3) 0.51930(19) 0.70157(20)
H6G H 0.27110 0.51430 0.73140
H7G H 0.23700 0.54580 0.65520
H8G H 0.20590 0.46970 0.68980
C8G C 0.16626(17) 0.56403(15) 0.74651(17)
H9G H 0.18570 0.61600 0.75260
C9G C 0.09294(16) 0.56907(14) 0.70113(17)
C10G C 0.07494(16) 0.63580(17) 0.66289(19)
H10G H 0.10690 0.67780 0.66720
C11G C 0.00930(19) 0.64085(19) 0.61783(20)
H11G H -0.00310 0.68650 0.59410
C12G C 0.04625(18) 0.50594(18) 0.69075(19)
H12G H 0.05860 0.46030 0.71460
C13G C -0.01790(19) 0.50987(20) 0.6458(2)
H13G H -0.04890 0.46730 0.63990
C14G C -0.03642(20) 0.57850(18) 0.60887(19)
C15G C -0.1239(3) 0.6460(3) 0.5290(3)
H14G H -0.13240 0.68470 0.56670
H15G H -0.17000 0.63780 0.50070
H16G H -0.08430 0.66210 0.49500
N1G N 0.14985(13) 0.53401(12) 0.82401(13)
N2G N 0.12449(13) 0.48677(13) 0.96767(13)
O1G O -0.10159(17) 0.57598(17) 0.56609(16)
C1J C -0.03898(18) 0.61329(17) 1.03589(18)
H1J H -0.07220 0.58790 1.00340
C2J C -0.06595(19) 0.63790(18) 1.10617(20)
H2J H -0.11640 0.62950 1.12000
C3J C -0.0176(2) 0.6745(2) 1.1544(2)
H3J H -0.03430 0.69090 1.20190
C4J C 0.05740(19) 0.6873(2) 1.13158(20)
H4J H 0.09140 0.71250 1.16340
C5J C 0.07982(15) 0.66161(17) 1.06057(16)
C6J C 0.15692(17) 0.67549(16) 1.03130(17)
H5J H 0.19180 0.70290 1.06030
C7J C 0.29843(30) 0.72550(19) 0.9807(2)
H6J H 0.26860 0.77110 0.98570
H7J H 0.34480 0.73700 0.95420
H8J H 0.31020 0.70590 1.03030
C8J C 0.25349(17) 0.66626(15) 0.93597(17)
H9J H 0.24740 0.68570 0.88400
C9J C 0.29887(16) 0.59294(14) 0.93093(17)
C10J C 0.33711(16) 0.57494(17) 0.86420(19)
H10J H 0.33280 0.60690 0.82220
C11J C 0.38217(19) 0.50930(19) 0.85915(20)
H11J H 0.40590 0.49690 0.81350
C12J C 0.30925(18) 0.54625(18) 0.99406(19)
H12J H 0.28540 0.55860 1.03970
C13J C 0.35420(19) 0.4821(2) 0.99013(20)
H13J H 0.36010 0.45110 1.03270
C14J C 0.39113(20) 0.46358(18) 0.92150(19)
C15J C 0.4710(3) 0.3761(3) 0.8540(3)
H14J H 0.43330 0.36760 0.81530
H15J H 0.49930 0.33000 0.86220
H16J H 0.50500 0.41570 0.83790
N1J N 0.17599(13) 0.64985(12) 0.96599(13)
N2J N 0.03233(13) 0.62449(13) 1.01323(13)
O1J O 0.43391(17) 0.39841(17) 0.92402(16)
O2E O 0.7451(6) 0.7046(5) 0.3509(7)
O2K O 0.8509(6) 0.7549(5) 0.2954(7)
O5F O 0.3095(4) 0.7744(3) 0.2900(4)
O5I O 0.2100(4) 0.6905(3) 0.2744(4)
#END

data_CSD_CIF_TRIAEH01
_audit_creation_date 1971-12-31
_audit_creation_method CSD-ConQuest-V1
_database_code_CSD TRIAEH01
_database_code_depnum_ccdc_archive 'CCDC 1275684'
_chemical_formula_sum 'C6 H21 Cl3 N4'
_chemical_formula_moiety
;
C6 H21 N4 3+,3(Cl1 1-)
;
_journal_coden_Cambridge 3
_journal_volume 22
_journal_year 1968
_journal_page_first 348
_journal_name_full 'Acta Chem.Scand. '
loop_
_publ_author_name
"R.G.Hazell"
"S.E.Rasmussen"
_chemical_name_systematic
;
N,N,N-tris(2-Ammonioethyl)amine trichloride
;
_cell_volume   1284.366
_diffrn_ambient_temperature ?
_diffrn_special_details
;
The study was carried out at room temperature,in the range 283-303K

;
#These two values have been output from a single CSD field.
_refine_ls_R_factor_gt 0.0476
_refine_ls_wR_factor_gt 0.0476
_symmetry_cell_setting cubic
_symmetry_space_group_name_H-M 'P 21 3'
_symmetry_Int_Tables_number 198
loop_
_symmetry_equiv_pos_site_id
_symmetry_equiv_pos_as_xyz
1 x,y,z
2 z,x,y
3 y,z,x
4 1/2+x,1/2-y,-z
5 1/2+z,1/2-x,-y
6 1/2+y,1/2-z,-x
7 -x,1/2+y,1/2-z
8 -z,1/2+x,1/2-y
9 -y,1/2+z,1/2-x
10 1/2-x,-y,1/2+z
11 1/2-z,-x,1/2+y
12 1/2-y,-z,1/2+x
_cell_length_a 10.870(1)
_cell_length_b 10.870(1)
_cell_length_c 10.870(1)
_cell_angle_alpha 90
_cell_angle_beta 90
_cell_angle_gamma 90
_cell_formula_units_Z 4
loop_
_atom_type_symbol
_atom_type_radius_bond
C 0.68
H 0.20
Cl 0.99
N 0.68
loop_
_atom_site_label
_atom_site_type_symbol
_atom_site_fract_x
_atom_site_fract_y
_atom_site_fract_z
Cl1 Cl 0.20210 0.20210 0.20210
Cl2 Cl 0.43920 0.43920 0.43920
Cl3 Cl -0.06850 -0.06850 -0.06850
C1 C -0.34300 -0.34610 -0.18860
C2 C -0.28050 -0.38760 -0.07330
H1 H -0.19790 -0.29910 0.07080
H2 H -0.37260 -0.42280 -0.23500
H3 H -0.42410 -0.28030 -0.15670
H4 H -0.29430 -0.21700 0.01210
H5 H -0.19450 -0.43260 -0.09620
H6 H -0.33050 -0.44900 -0.03280
H7 H -0.17120 -0.24500 -0.02350
N1 N -0.26560 -0.26560 -0.26560
N2 N -0.24600 -0.28530 0.00610
C1A C -0.18860 -0.34300 -0.34610
C1B C -0.34610 -0.18860 -0.34300
C2A C -0.07330 -0.28050 -0.38760
H2A H -0.23500 -0.37260 -0.42280
H3A H -0.15670 -0.42410 -0.28030
C2B C -0.38760 -0.07330 -0.28050
H2B H -0.42280 -0.23500 -0.37260
H3B H -0.28030 -0.15670 -0.42410
H5A H -0.09620 -0.19450 -0.43260
H6A H -0.03280 -0.33050 -0.44900
N2A N 0.00610 -0.24600 -0.28530
H5B H -0.43260 -0.09620 -0.19450
H6B H -0.44900 -0.03280 -0.33050
N2B N -0.28530 0.00610 -0.24600
H1A H 0.07080 -0.19790 -0.29910
H4A H 0.01210 -0.29430 -0.21700
H7A H -0.02350 -0.17120 -0.24500
H1B H -0.29910 0.07080 -0.19790
H4B H -0.21700 0.01210 -0.29430
H7B H -0.24500 -0.02350 -0.17120
#END

data_CSD_CIF_TRIAEH02
_audit_creation_date 2001-01-15
_audit_creation_method CSD-ConQuest-V1
_database_code_CSD TRIAEH02
_database_code_depnum_ccdc_archive 'CCDC 152111'
_database_code_depnum_ccdc_journal 440/195
_chemical_formula_sum 'C6 H21 Cl3 N4'
_chemical_formula_moiety
;
C6 H21 N4 3+,3(Cl1 1-)
;
_journal_coden_Cambridge 440
_journal_volume 24
_journal_year 2000
_journal_page_first 787
_journal_name_full 'New J.Chem. '
loop_
_publ_author_name
"C.A.Ilioudis"
"K.S.B.Hancock"
"D.G.Georganopoulou"
"J.W.Steed"
_chemical_name_systematic
;
N,N,N-tris(2-Ammonioethyl)amine trichloride
;
_cell_volume   1286.139
_exptl_crystal_colour 'yellow'
_exptl_crystal_density_diffrn 1.32
_exptl_crystal_description 'block'
_diffrn_ambient_temperature 100
#These two values have been output from a single CSD field.
_refine_ls_R_factor_gt 0.0199
_refine_ls_wR_factor_gt 0.0199
_symmetry_cell_setting cubic
_symmetry_space_group_name_H-M 'P 21 3'
_symmetry_Int_Tables_number 198
loop_
_symmetry_equiv_pos_site_id
_symmetry_equiv_pos_as_xyz
1 x,y,z
2 1/2-x,-y,1/2+z
3 -x,1/2+y,1/2-z
4 1/2+x,1/2-y,-z
5 z,x,y
6 1/2+z,1/2-x,-y
7 1/2-z,-x,1/2+y
8 -z,1/2+x,1/2-y
9 y,z,x
10 -y,1/2+z,1/2-x
11 1/2+y,1/2-z,-x
12 1/2-y,-z,1/2+x
_cell_length_a 10.8750(13)
_cell_length_b 10.8750(13)
_cell_length_c 10.8750(13)
_cell_angle_alpha 90
_cell_angle_beta 90
_cell_angle_gamma 90
_cell_formula_units_Z 4
loop_
_atom_type_symbol
_atom_type_radius_bond
C 0.68
H 0.23
Cl 0.99
N 0.68
loop_
_atom_site_label
_atom_site_type_symbol
_atom_site_fract_x
_atom_site_fract_y
_atom_site_fract_z
Cl1 Cl 0.68251(4) 0.81749(4) 0.18251(4)
Cl2 Cl 0.05054(3) 0.05054(3) 0.05054(3)
Cl3 Cl -0.31191(4) 0.18809(4) 0.31191(4)
N1 N -0.24152(14) 0.03473(16) 0.00270(16)
H1 H -0.269(2) -0.012(2) 0.060(2)
H2 H -0.228(3) -0.026(3) -0.065(3)
H3 H -0.167(2) 0.055(2) 0.0287(19)
N2 N -0.51647(12) 0.01647(12) -0.01647(12)
C1 C -0.32321(16) 0.14005(15) -0.02877(15)
H4 H -0.2798(17) 0.1940(19) -0.0860(19)
H5 H -0.3409(16) 0.1770(15) 0.0528(18)
C2 C -0.43772(17) 0.09612(16) -0.09419(15)
H6 H -0.4868(19) 0.172(2) -0.1246(18)
H7 H -0.4081(18) 0.0470(19) -0.172(2)
C2E C -0.59419(17) -0.06228(16) -0.09612(15)
C1E C -0.52877(16) -0.17679(15) -0.14005(15)
N1E N -0.49730(14) -0.25848(16) -0.03473(16)
H1E H -0.440(2) -0.231(2) 0.012(2)
H2E H -0.565(3) -0.272(3) 0.026(3)
H3E H -0.4713(20) -0.333(2) -0.0550(19)
H4E H -0.5860(17) -0.2202(19) -0.1940(19)
H5E H -0.4472(16) -0.1591(15) -0.1770(18)
H6E H -0.6246(19) -0.0132(20) -0.1720(18)
H7E H -0.6720(18) -0.0919(19) -0.047(2)
C2K C -0.59612(17) 0.09419(16) 0.06228(15)
C1K C -0.64005(16) 0.02877(15) 0.17679(15)
N1K N -0.53473(14) -0.00270(16) 0.25848(16)
H1K H -0.488(2) -0.060(2) 0.231(2)
H2K H -0.474(3) 0.065(3) 0.272(3)
H3K H -0.555(2) -0.0287(20) 0.3330(19)
H4K H -0.6940(17) 0.0860(19) 0.2202(19)
H5K H -0.6770(16) -0.0528(15) 0.1591(18)
H6K H -0.6720(19) 0.1246(20) 0.0132(18)
H7K H -0.5470(18) 0.1720(19) 0.0919(20)
#END

data_CSD_CIF_TRIAEH03
_audit_creation_date 2014-10-07
_audit_creation_method CSD-ConQuest-V1
_database_code_CSD TRIAEH03
_database_code_depnum_ccdc_archive 'CCDC 1027897'
_chemical_formula_sum 'C6 H21 Cl3 N4'
_chemical_formula_moiety
;
C6 H21 N4 3+,3(Cl1 1-)
;
_journal_coden_Cambridge 1078
_journal_year 2014
_journal_name_full 'CSD Communication(Private Communication) '
loop_
_publ_author_name
"M.A.Kiskin"
_chemical_name_systematic
;
2,2',2''-nitrilotriethanaminium trichloride
;
_cell_volume   1288.624
_exptl_crystal_colour 'colorless'
_exptl_crystal_density_diffrn 1.318
_exptl_crystal_description 'block'
_diffrn_ambient_temperature 296
#These two values have been output from a single CSD field.
_refine_ls_R_factor_gt 0.0478
_refine_ls_wR_factor_gt 0.0478
_symmetry_cell_setting cubic
_symmetry_space_group_name_H-M 'P 21 3'
_symmetry_Int_Tables_number 198
loop_
_symmetry_equiv_pos_site_id
_symmetry_equiv_pos_as_xyz
1 x,y,z
2 1/2-x,-y,1/2+z
3 -x,1/2+y,1/2-z
4 1/2+x,1/2-y,-z
5 z,x,y
6 1/2+z,1/2-x,-y
7 1/2-z,-x,1/2+y
8 -z,1/2+x,1/2-y
9 y,z,x
10 -y,1/2+z,1/2-x
11 1/2+y,1/2-z,-x
12 1/2-y,-z,1/2+x
_cell_length_a 10.882(7)
_cell_length_b 10.882(7)
_cell_length_c 10.882(7)
_cell_angle_alpha 90
_cell_angle_beta 90
_cell_angle_gamma 90
_cell_formula_units_Z 4
loop_
_atom_type_symbol
_atom_type_radius_bond
C 0.68
H 0.23
Cl 0.99
N 0.68
loop_
_atom_site_label
_atom_site_type_symbol
_atom_site_fract_x
_atom_site_fract_y
_atom_site_fract_z
Cl1 Cl 0.81819(7) 0.31819(7) 0.18181(7)
Cl2 Cl 1.18930(8) 0.18930(8) 0.18930(8)
Cl3 Cl 0.95189(6) -0.04811(6) -0.04811(6)
N1 N 1.0158(2) 0.5158(2) -0.0158(2)
N2 N 0.9955(3) 0.2436(2) -0.0352(3)
H1 H 0.95870 0.17670 -0.06440
H2 H 0.94430 0.28340 0.01460
H3 H 1.06250 0.22190 0.00640
C1 C 1.0300(3) 0.3235(3) -0.1367(3)
H4 H 0.95690 0.34530 -0.18270
H5 H 1.08440 0.27890 -0.19150
C2 C 1.0928(3) 0.4386(3) -0.0953(3)
H6 H 1.16710 0.41680 -0.05110
H7 H 1.11680 0.48590 -0.16700
N2G N 1.0352(3) 0.4955(2) 0.2564(3)
H1G H 1.06440 0.45870 0.32330
H2G H 0.98540 0.44430 0.21660
H3G H 0.99360 0.56250 0.27810
C1G C 1.1367(3) 0.5300(3) 0.1765(3)
H4G H 1.18270 0.45690 0.15470
H5G H 1.19150 0.58440 0.22110
C2G C 1.0953(3) 0.5928(3) 0.0614(3)
H6G H 1.05110 0.66710 0.08320
H7G H 1.16700 0.61680 0.01410
N2J N 0.7436(3) 0.5352(2) 0.0045(3)
H1J H 0.67670 0.56440 0.04130
H2J H 0.78340 0.48540 0.05570
H3J H 0.72190 0.49360 -0.06250
C1J C 0.8235(3) 0.6367(3) -0.0300(3)
H4J H 0.84530 0.68270 0.04310
H5J H 0.77890 0.69150 -0.08440
C2J C 0.9386(3) 0.5953(3) -0.0928(3)
H6J H 0.91680 0.55110 -0.16710
H7J H 0.98590 0.66700 -0.11680
#END

data_CSD_CIF_TUJNAO
_audit_creation_date 2010-06-03
_audit_creation_method CSD-ConQuest-V1
_database_code_CSD TUJNAO
_database_code_depnum_ccdc_archive 'CCDC 715138'
_chemical_formula_sum 'C30 H26 Co1 N6 O20 W6'
_chemical_formula_moiety
;
C30 H24 Co1 N6 2+,O19 W6 2-,H2 O1
;
_journal_coden_Cambridge 211
_journal_volume 62
_journal_year 2009
_journal_page_first 3117
_journal_name_full 'J.Coord.Chem. '
loop_
_publ_author_name
"Pengtao Ma"
"Chunfa Yu"
"Junwei Zhao"
"Yuquan Feng"
"Jingping Wang"
"Jingyang Niu"
_chemical_name_systematic
;
tris(2,2'-Bipyridine-N,N')-cobalt(ii) 
(\m~6~-oxo)-dodecakis(\m~2~-oxo)-hexaoxo-hexa-tungsten monohydrate
;
_cell_volume   3925.917
_exptl_crystal_colour 'yellow'
_exptl_crystal_density_diffrn 3.3
_exptl_crystal_description 'block'
_diffrn_ambient_temperature 296
#These two values have been output from a single CSD field.
_refine_ls_R_factor_gt 0.0341
_refine_ls_wR_factor_gt 0.0341
_symmetry_cell_setting cubic
_symmetry_space_group_name_H-M 'P 21 3'
_symmetry_Int_Tables_number 198
loop_
_symmetry_equiv_pos_site_id
_symmetry_equiv_pos_as_xyz
1 x,y,z
2 1/2-x,-y,1/2+z
3 -x,1/2+y,1/2-z
4 1/2+x,1/2-y,-z
5 z,x,y
6 1/2+z,1/2-x,-y
7 1/2-z,-x,1/2+y
8 -z,1/2+x,1/2-y
9 y,z,x
10 -y,1/2+z,1/2-x
11 1/2+y,1/2-z,-x
12 1/2-y,-z,1/2+x
_cell_length_a 15.7754(4)
_cell_length_b 15.7754(4)
_cell_length_c 15.7754(4)
_cell_angle_alpha 90
_cell_angle_beta 90
_cell_angle_gamma 90
_cell_formula_units_Z 4
loop_
_atom_type_symbol
_atom_type_radius_bond
C 0.68
H 0.23
Co 1.26
N 0.68
O 0.68
W 1.35
loop_
_atom_site_label
_atom_site_type_symbol
_atom_site_fract_x
_atom_site_fract_y
_atom_site_fract_z
W1 W 0.73715(3) 0.87647(3) 0.89087(3)
W2 W 0.69652(4) 0.68158(3) 0.83305(4)
Co1 Co 0.29035(9) 0.79035(9) 0.70965(9)
O1 O 0.6982(7) 0.9442(5) 0.9658(6)
O2 O 0.6306(6) 0.6064(5) 0.8703(6)
O3 O 0.8293(6) 0.8191(5) 0.9451(5)
O4 O 0.7856(5) 0.7856(5) 0.7856(5)
O5 O 0.6719(6) 0.7760(5) 0.9099(5)
O6 O 0.6641(6) 0.8989(5) 0.7953(5)
O7 O 0.7525(5) 0.6272(5) 0.7408(5)
N1 N 0.3646(6) 0.7414(6) 0.6248(6)
N2 N 0.2103(6) 0.7137(6) 0.6610(6)
C1 C 0.1286(7) 0.7010(8) 0.6868(8)
H1 H 0.10820 0.72970 0.73400
C2 C 0.4497(7) 0.7588(9) 0.6167(9)
H2 H 0.47490 0.79900 0.65170
C3 C 0.4981(8) 0.7167(8) 0.5562(8)
H3 H 0.55510 0.72970 0.54890
C4 C 0.0759(8) 0.6458(9) 0.6434(10)
H4 H 0.01990 0.63870 0.66070
C5 C 0.4597(8) 0.6548(8) 0.5072(8)
H5 H 0.49220 0.62460 0.46830
C6 C 0.1048(9) 0.6038(10) 0.5784(9)
H6 H 0.06910 0.56690 0.54940
C7 C 0.3748(8) 0.6371(8) 0.5147(9)
H7 H 0.34880 0.59660 0.48070
C8 C 0.1882(8) 0.6133(7) 0.5517(8)
H8 H 0.20820 0.58320 0.50510
C9 C 0.3293(7) 0.6824(7) 0.5752(6)
C10 C 0.2396(7) 0.6665(8) 0.5939(7)
O8 O 0.6309(9) 0.8691(9) 0.1309(9)
W1D W 0.89087(3) 0.73715(3) 0.87647(3)
W1H W 0.87647(3) 0.89087(3) 0.73715(3)
W2H W 0.68158(4) 0.83305(3) 0.69652(4)
W2D W 0.83305(4) 0.69652(3) 0.68158(4)
O1D O 0.9658(7) 0.6982(5) 0.9442(6)
O1H O 0.9442(7) 0.9658(5) 0.6982(6)
O2H O 0.6064(6) 0.8703(5) 0.6306(6)
O2D O 0.8703(6) 0.6306(5) 0.6064(6)
O3D O 0.9451(6) 0.8293(5) 0.8191(5)
O3H O 0.8191(6) 0.9451(5) 0.8293(5)
O5H O 0.7760(6) 0.9099(5) 0.6719(5)
O5D O 0.9099(6) 0.6719(5) 0.7760(5)
O6D O 0.7953(6) 0.6641(5) 0.8989(5)
O6H O 0.8989(6) 0.7953(5) 0.6641(5)
O7H O 0.6272(5) 0.7408(5) 0.7525(5)
O7D O 0.7408(5) 0.7525(5) 0.6272(5)
N1G N 0.3752(6) 0.8646(6) 0.7586(6)
N1J N 0.2414(6) 0.8752(6) 0.6354(6)
N2G N 0.3390(6) 0.7103(6) 0.7863(6)
N2J N 0.2137(6) 0.8390(6) 0.7897(6)
C1J C 0.2010(7) 0.8132(8) 0.8714(8)
C1G C 0.3132(7) 0.6286(8) 0.7990(8)
H1J H 0.22970 0.76600 0.89180
H1G H 0.26600 0.60820 0.77030
C2G C 0.3833(7) 0.9497(9) 0.7412(9)
C2J C 0.2588(7) 0.8833(9) 0.5503(9)
H2G H 0.34830 0.97490 0.70100
H2J H 0.29900 0.84830 0.52510
C3G C 0.4438(8) 0.9981(8) 0.7833(8)
C3J C 0.2167(8) 0.9438(8) 0.5019(8)
H3G H 0.45110 1.05510 0.77030
H3J H 0.22970 0.95110 0.44490
C4J C 0.1458(8) 0.8566(9) 0.9241(10)
C4G C 0.3566(8) 0.5759(9) 0.8542(10)
H4J H 0.13870 0.83930 0.98010
H4G H 0.33930 0.51990 0.86130
C5G C 0.4928(8) 0.9597(8) 0.8452(8)
C5J C 0.1548(8) 0.9928(8) 0.5403(8)
H5G H 0.53170 0.99220 0.87540
H5J H 0.12460 1.03170 0.50780
C6J C 0.1038(9) 0.9216(10) 0.8952(9)
C6G C 0.4216(9) 0.6048(10) 0.8962(9)
H6J H 0.06690 0.95060 0.93090
H6G H 0.45060 0.56910 0.93310
C7G C 0.4853(8) 0.8748(8) 0.8629(9)
C7J C 0.1371(8) 0.9853(8) 0.6252(9)
H7G H 0.51930 0.84880 0.90340
H7J H 0.09660 1.01930 0.65120
C8J C 0.1133(8) 0.9483(7) 0.8118(8)
C8G C 0.4483(8) 0.6882(7) 0.8867(8)
H8J H 0.08320 0.99490 0.79180
H8G H 0.49490 0.70820 0.91680
C9G C 0.4248(7) 0.8293(7) 0.8176(6)
C9J C 0.1824(7) 0.9248(7) 0.6707(6)
C10G C 0.4061(7) 0.7396(8) 0.8335(7)
C10J C 0.1665(7) 0.9061(8) 0.7604(7)
#END

data_CSD_CIF_UROVIH
_audit_creation_date 2011-08-03
_audit_creation_method CSD-ConQuest-V1
_database_code_CSD UROVIH
_database_code_depnum_ccdc_archive 'CCDC 808280'
_chemical_formula_sum 'C12 H30 Cl2 Cu1 N4'
_chemical_formula_moiety
;
C12 H30 Cl1 Cu1 N4 1+,Cl1 1-
;
_journal_coden_Cambridge 222
_journal_volume 40
_journal_year 2011
_journal_page_first 4909
_journal_name_full 'Dalton Trans. '
loop_
_publ_author_name
"W.T.Eckenhoff"
"T.Pintauer"
_chemical_name_systematic
;
(tris(2-(dimethylamino)ethyl)amine)-chloro-copper(ii) chloride
;
_cell_volume   1666.030
_exptl_crystal_colour 'green'
_exptl_crystal_density_diffrn 1.455
_exptl_crystal_description 'rhomboids'
_diffrn_ambient_temperature 150
#These two values have been output from a single CSD field.
_refine_ls_R_factor_gt 0.0208
_refine_ls_wR_factor_gt 0.0208
_symmetry_cell_setting cubic
_symmetry_space_group_name_H-M 'P 21 3'
_symmetry_Int_Tables_number 198
loop_
_symmetry_equiv_pos_site_id
_symmetry_equiv_pos_as_xyz
1 x,y,z
2 1/2-x,-y,1/2+z
3 -x,1/2+y,1/2-z
4 1/2+x,1/2-y,-z
5 z,x,y
6 1/2+z,1/2-x,-y
7 1/2-z,-x,1/2+y
8 -z,1/2+x,1/2-y
9 y,z,x
10 -y,1/2+z,1/2-x
11 1/2+y,1/2-z,-x
12 1/2-y,-z,1/2+x
_cell_length_a 11.8548(1)
_cell_length_b 11.8548(1)
_cell_length_c 11.8548(1)
_cell_angle_alpha 90
_cell_angle_beta 90
_cell_angle_gamma 90
_cell_formula_units_Z 4
loop_
_atom_type_symbol
_atom_type_radius_bond
C 0.68
H 0.23
Cl 0.99
Cu 1.32
N 0.68
loop_
_atom_site_label
_atom_site_type_symbol
_atom_site_fract_x
_atom_site_fract_y
_atom_site_fract_z
Cu1 Cu 0.484247(10) 0.515753(10) 1.015753(10)
Cl1 Cl 0.37423(2) 0.62577(2) 1.12577(2)
C1 C 0.68659(9) 0.48110(9) 0.88256(10)
H1 H 0.71590 0.45240 0.81180
H2 H 0.74460 0.47230 0.93960
N1 N 0.58431(7) 0.41569(7) 0.91569(7)
N2 N 0.60375(8) 0.64600(8) 0.97558(8)
C2 C 0.65682(11) 0.60538(10) 0.86985(9)
H3 H 0.72450 0.64870 0.85430
H4 H 0.60510 0.61530 0.80720
C3 C 0.69087(10) 0.65896(11) 1.06453(11)
H5 H 0.74480 0.71480 1.04150
H6 H 0.72850 0.58820 1.07600
H7 H 0.65560 0.68230 1.13360
C4 C 0.55253(12) 0.75779(10) 0.95559(11)
H8 H 0.60950 0.80950 0.93030
H9 H 0.51990 0.78520 1.02440
H10 H 0.49490 0.75140 0.89910
Cl2 Cl 0.92810(3) 0.42810(3) 0.07190(3)
C1F C 0.61744(9) 0.31341(9) 0.9811(1)
C1I C 0.51890(9) 0.38256(9) 0.81341(10)
H1F H 0.68820 0.28410 0.95240
H1I H 0.54760 0.31180 0.78410
H2F H 0.56040 0.25540 0.97230
H2I H 0.52770 0.43960 0.75540
N2F N 0.52442(8) 0.39625(8) 1.14600(8)
N2I N 0.35400(8) 0.47558(8) 0.89625(8)
C2F C 0.63015(11) 0.34318(10) 1.10538(9)
C2I C 0.39462(11) 0.36985(10) 0.84318(9)
H3F H 0.64570 0.27550 1.14870
H3I H 0.35130 0.35430 0.77550
H4F H 0.69280 0.39490 1.11530
H4I H 0.38470 0.30720 0.89490
C3F C 0.43547(10) 0.30913(11) 1.15896(11)
C3I C 0.34104(10) 0.56453(11) 0.80913(11)
H5F H 0.45850 0.25520 1.21480
H5I H 0.28520 0.54150 0.75520
H6F H 0.42400 0.27150 1.08820
H6I H 0.41180 0.57600 0.77150
H7F H 0.36640 0.34440 1.18230
H7I H 0.31770 0.63360 0.84440
C4F C 0.54441(12) 0.44747(10) 1.25779(11)
C4I C 0.24221(12) 0.45559(10) 0.94747(11)
H8F H 0.56970 0.39050 1.30950
H8I H 0.19050 0.43030 0.89050
H9F H 0.47560 0.48010 1.28520
H9I H 0.21480 0.52440 0.98010
H10F H 0.60090 0.50510 1.25140
H10I H 0.24860 0.39910 1.00510
#END

data_CSD_CIF_VADFOV
_audit_creation_date 1989-07-31
_audit_creation_method CSD-ConQuest-V1
_database_code_CSD VADFOV
_database_code_depnum_ccdc_archive 'CCDC 1278827'
_chemical_formula_sum 'C16 H27 Cl2 N3 O8'
_chemical_formula_moiety
;
C16 H27 N3 2+,2(Cl1 O4 1-)
;
_journal_coden_Cambridge 3
_journal_volume 42
_journal_year 1988
_journal_page_first 573
_journal_name_full 'Acta Chem.Scand. '
loop_
_publ_author_name
"J.Dale"
"O.I.Eriksen"
"P.Groth"
_chemical_name_systematic
;
tris(3-Dimethylimonio-1-propenyl)methide diperchlorate
;
_cell_volume   2139.707
_exptl_crystal_density_diffrn 1.43
_diffrn_ambient_temperature 133.15
#These two values have been output from a single CSD field.
_refine_ls_R_factor_gt 0.03
_refine_ls_wR_factor_gt 0.03
_symmetry_cell_setting cubic
_symmetry_space_group_name_H-M 'P 21 3'
_symmetry_Int_Tables_number 198
loop_
_symmetry_equiv_pos_site_id
_symmetry_equiv_pos_as_xyz
1 x,y,z
2 z,x,y
3 y,z,x
4 1/2+x,1/2-y,-z
5 1/2+z,1/2-x,-y
6 1/2+y,1/2-z,-x
7 -x,1/2+y,1/2-z
8 -z,1/2+x,1/2-y
9 -y,1/2+z,1/2-x
10 1/2-x,-y,1/2+z
11 1/2-z,-x,1/2+y
12 1/2-y,-z,1/2+x
_cell_length_a 12.886(2)
_cell_length_b 12.886(2)
_cell_length_c 12.886(2)
_cell_angle_alpha 90
_cell_angle_beta 90
_cell_angle_gamma 90
_cell_formula_units_Z 4
loop_
_atom_type_symbol
_atom_type_radius_bond
C 0.68
Cl 0.99
N 0.68
O 0.68
loop_
_atom_site_label
_atom_site_type_symbol
_atom_site_fract_x
_atom_site_fract_y
_atom_site_fract_z
Cl1 Cl 0.20684(17) 0.20684 0.20684
O1 O 0.2725(4) 0.27250 0.27250
O2 O 0.2406(5) 0.1026(4) 0.2226(5)
Cl2 Cl 0.61821(17) 0.11821 0.38179
O3 O 0.6826(4) 0.18260 0.31740
O4 O 0.6497(5) 0.0104(4) 0.3709(4)
C1 C 0.5441(6) -0.45590 0.54410
C2 C 0.5485(6) -0.3810(6) 0.4629(6)
C3 C 0.4883(6) -0.2970(7) 0.4446(6)
C4 C 0.5028(6) -0.2375(6) 0.3565(6)
N1 N 0.4524(5) -0.1562(5) 0.3246(4)
C5 C 0.4745(8) -0.1080(9) 0.2252(8)
C6 C 0.3673(9) -0.1077(9) 0.3812(10)
O2A O 0.2226(5) 0.2406(4) 0.1026(5)
O2B O 0.1026(5) 0.2226(4) 0.2406(5)
O4E O 0.5104(5) 0.1291(4) 0.3503(4)
O4G O 0.6291(5) 0.1497(4) 0.4896(4)
C2A C 0.4629(6) -0.4515(6) 0.6190(6)
C2B C 0.6190(6) -0.5371(6) 0.5485(6)
C3A C 0.4446(6) -0.5117(7) 0.7030(6)
C3B C 0.7030(6) -0.5554(7) 0.4883(6)
C4A C 0.3565(6) -0.4972(6) 0.7625(6)
C4B C 0.7625(6) -0.6435(6) 0.5028(6)
N1A N 0.3246(5) -0.5476(5) 0.8438(4)
N1B N 0.8438(5) -0.6754(5) 0.4524(4)
C5A C 0.2252(8) -0.5255(9) 0.8920(8)
C6A C 0.3812(9) -0.6327(9) 0.8923(10)
C5B C 0.8920(8) -0.7748(9) 0.4745(8)
C6B C 0.8923(9) -0.6188(9) 0.3673(10)
#END

data_CSD_CIF_VATKIL01
_audit_creation_date 2007-07-19
_audit_creation_method CSD-ConQuest-V1
_database_code_CSD VATKIL01
_database_code_depnum_ccdc_archive 'CCDC 610230'
_chemical_formula_sum 'C6 H21 Br3 N4'
_chemical_formula_moiety
;
C6 H21 N4 3+,3(Br1 1-)
;
_journal_coden_Cambridge 974
_journal_volume 3
_journal_year 2006
_journal_page_first 490
_journal_name_full 'Laser Phys.Lett. '
loop_
_publ_author_name
"A.A.Kaminskii"
"L.Bohaty"
"P.Becker"
"P.Held"
"H.J.Eichler"
"H.Rhee"
"J.Hanuza"
"M.Maczka"
_chemical_name_systematic
;
tris(2-Ammonioethyl)amine tribromide
;
_chemical_name_common
;
2,2',2''-Triaminotriethylamine trihydrobromide
;
_cell_volume   1363.569
_exptl_crystal_colour 'colorless'
_exptl_crystal_density_diffrn 1.895
_exptl_crystal_description 'parallelepiped'
_exptl_crystal_preparation 'water'
_diffrn_ambient_temperature 293
#These two values have been output from a single CSD field.
_refine_ls_R_factor_gt 0.0345
_refine_ls_wR_factor_gt 0.0345
_symmetry_cell_setting cubic
_symmetry_space_group_name_H-M 'P 21 3'
_symmetry_Int_Tables_number 198
loop_
_symmetry_equiv_pos_site_id
_symmetry_equiv_pos_as_xyz
1 x,y,z
2 1/2-x,-y,1/2+z
3 -x,1/2+y,1/2-z
4 1/2+x,1/2-y,-z
5 z,x,y
6 1/2+z,1/2-x,-y
7 1/2-z,-x,1/2+y
8 -z,1/2+x,1/2-y
9 y,z,x
10 -y,1/2+z,1/2-x
11 1/2+y,1/2-z,-x
12 1/2-y,-z,1/2+x
_cell_length_a 11.089(1)
_cell_length_b 11.089(1)
_cell_length_c 11.089(1)
_cell_angle_alpha 90
_cell_angle_beta 90
_cell_angle_gamma 90
_cell_formula_units_Z 4
loop_
_atom_type_symbol
_atom_type_radius_bond
C 0.68
H 0.23
Br 1.21
N 0.68
loop_
_atom_site_label
_atom_site_type_symbol
_atom_site_fract_x
_atom_site_fract_y
_atom_site_fract_z
Br1 Br 0.32182(5) 0.32182(5) 0.32182(5)
Br2 Br 0.04468(4) 0.04468(4) 0.04468(4)
Br3 Br -0.19848(5) -0.19848(5) -0.19848(5)
N1 N 0.5240(3) 0.5240(3) 0.5240(3)
N2 N 0.5419(4) 0.5118(5) 0.2535(6)
H1 H 0.560(5) 0.486(5) 0.186(4)
H2 H 0.496(5) 0.570(5) 0.247(6)
H3 H 0.482(7) 0.452(8) 0.278(8)
C1 C 0.6439(5) 0.5381(5) 0.3355(6)
H4 H 0.698(4) 0.592(4) 0.293(4)
H5 H 0.682(4) 0.459(5) 0.348(5)
C2 C 0.5995(5) 0.6015(5) 0.4471(5)
H6 H 0.675(6) 0.636(4) 0.490(4)
H7 H 0.563(4) 0.665(5) 0.421(4)
N2D N 0.2535(4) 0.5419(5) 0.5118(6)
N2H N 0.5118(4) 0.2535(5) 0.5419(6)
H1D H 0.186(5) 0.560(5) 0.486(4)
H1H H 0.486(5) 0.186(5) 0.560(4)
H2D H 0.247(5) 0.496(5) 0.570(6)
H2H H 0.570(5) 0.247(5) 0.496(6)
H3D H 0.278(7) 0.482(8) 0.452(8)
H3H H 0.452(7) 0.278(8) 0.482(8)
C1D C 0.3355(5) 0.6439(5) 0.5381(6)
C1H C 0.5381(5) 0.3355(5) 0.6439(6)
H4D H 0.293(4) 0.698(4) 0.592(4)
H4H H 0.592(4) 0.293(4) 0.698(4)
H5D H 0.348(4) 0.682(5) 0.459(5)
H5H H 0.459(4) 0.348(5) 0.682(5)
C2D C 0.4471(5) 0.5995(5) 0.6015(5)
C2H C 0.6015(5) 0.4471(5) 0.5995(5)
H6D H 0.490(6) 0.675(4) 0.636(4)
H6H H 0.636(6) 0.490(4) 0.675(4)
H7D H 0.421(4) 0.563(5) 0.665(4)
H7H H 0.665(4) 0.421(5) 0.563(4)
#END

data_CSD_CIF_VETQER
_audit_creation_date 2007-03-13
_audit_creation_method CSD-ConQuest-V1
_database_code_CSD VETQER
_database_code_depnum_ccdc_archive 'CCDC 606498'
_chemical_formula_sum 'C48 H36 N2 S6'
_chemical_formula_moiety
;
C48 H36 N2 S6
;
_journal_coden_Cambridge 1291
_journal_volume 2006
_journal_year 2006
_journal_page_first 5264
_journal_name_full 'Eur.J.Org.Chem. '
loop_
_publ_author_name
"M.Baier"
"R.Gleiter"
"F.Rominger"
_chemical_name_systematic
;
1,12-diaza-4,9,15,20,25,30(2,5)-hexathiophenabicyclo[10.10.10]dotriacontaphane
-5,7,16,18,26,28-hexayne
;
_cell_volume   4100.610
_exptl_crystal_colour 'red-brown'
_exptl_crystal_density_diffrn 1.35
_exptl_crystal_description 'polyhedron'
_diffrn_ambient_temperature 100
#These two values have been output from a single CSD field.
_refine_ls_R_factor_gt 0.0474
_refine_ls_wR_factor_gt 0.0474
_symmetry_cell_setting cubic
_symmetry_space_group_name_H-M 'P 21 3'
_symmetry_Int_Tables_number 198
loop_
_symmetry_equiv_pos_site_id
_symmetry_equiv_pos_as_xyz
1 x,y,z
2 1/2-x,-y,1/2+z
3 -x,1/2+y,1/2-z
4 1/2+x,1/2-y,-z
5 z,x,y
6 1/2+z,1/2-x,-y
7 1/2-z,-x,1/2+y
8 -z,1/2+x,1/2-y
9 y,z,x
10 -y,1/2+z,1/2-x
11 1/2+y,1/2-z,-x
12 1/2-y,-z,1/2+x
_cell_length_a 16.0060(3)
_cell_length_b 16.0060(3)
_cell_length_c 16.0060(3)
_cell_angle_alpha 90
_cell_angle_beta 90
_cell_angle_gamma 90
_cell_formula_units_Z 4
loop_
_atom_type_symbol
_atom_type_radius_bond
C 0.68
H 0.23
N 0.68
S 1.02
loop_
_atom_site_label
_atom_site_type_symbol
_atom_site_fract_x
_atom_site_fract_y
_atom_site_fract_z
S1 S 0.90726(4) 0.30120(4) 0.01500(4)
S2 S 0.54629(4) 0.01194(4) 0.31519(4)
N1 N 1.00799(14) 0.50799(14) -0.00799(14)
N2 N 0.47745(15) -0.02255(15) 0.52255(15)
C1 C 0.9954(2) 0.48705(19) -0.09645(17)
C2 C 0.9872(2) 0.39270(19) -0.11009(19)
C3 C 0.90751(19) 0.35800(18) -0.07616(17)
C4 C 0.8287(2) 0.36454(19) -0.10740(19)
C5 C 0.76849(19) 0.32152(19) -0.0598(2)
C6 C 0.80049(17) 0.28256(16) 0.00941(18)
C7 C 0.76179(19) 0.23114(19) 0.0697(2)
C8 C 0.73357(19) 0.1837(2) 0.12134(19)
C9 C 0.70367(19) 0.12523(19) 0.17702(19)
C10 C 0.67750(18) 0.07215(19) 0.22268(19)
C11 C 0.64593(18) 0.0063(2) 0.27242(16)
C12 C 0.6816(2) -0.06877(19) 0.29100(19)
C13 C 0.62956(19) -0.12140(18) 0.33917(18)
C14 C 0.55339(18) -0.08714(17) 0.35626(17)
C15 C 0.4826(2) -0.12480(19) 0.40332(19)
C16 C 0.4862(2) -0.1101(2) 0.4979(2)
H1 H 1.0387(19) 0.513(2) -0.1327(19)
H2 H 0.9478(19) 0.5091(19) -0.1154(18)
H3 H 0.988(2) 0.380(2) -0.165(2)
H4 H 1.037(2) 0.369(2) -0.079(2)
H5 H 0.816(2) 0.391(2) -0.154(2)
H6 H 0.715(2) 0.318(2) -0.072(2)
H7 H 0.733(3) -0.083(3) 0.271(3)
H8 H 0.6443(19) -0.172(2) 0.352(2)
H9 H 0.429(2) -0.108(2) 0.381(2)
H10 H 0.487(2) -0.180(3) 0.394(2)
H11 H 0.539(2) -0.125(2) 0.517(2)
H12 H 0.446(2) -0.147(2) 0.531(2)
S1G S 0.98500(4) 0.40726(4) 0.19880(4)
S1J S 0.80120(4) 0.48500(4) 0.09274(4)
S2G S 0.68481(4) 0.04629(4) 0.48806(4)
S2J S 0.51194(4) 0.18481(4) 0.45371(4)
C1G C 1.09645(20) 0.49540(19) 0.01295(17)
C1J C 0.98705(20) 0.59645(19) 0.00460(17)
C2G C 1.11009(20) 0.48720(19) 0.10730(19)
C2J C 0.8927(2) 0.61009(19) 0.01280(19)
C3G C 1.07616(19) 0.40751(18) 0.14200(17)
C3J C 0.85800(19) 0.57616(18) 0.09249(17)
C4G C 1.1074(2) 0.32870(19) 0.13546(19)
C4J C 0.86454(20) 0.60740(19) 0.17130(19)
C5G C 1.05980(19) 0.26849(19) 0.17848(20)
C5J C 0.82152(19) 0.55980(19) 0.23151(20)
C6G C 0.99059(17) 0.30049(16) 0.21744(18)
C6J C 0.78256(17) 0.49059(16) 0.19951(18)
C7G C 0.93030(19) 0.26179(19) 0.26886(20)
C7J C 0.73114(19) 0.43030(19) 0.23821(20)
C8G C 0.87866(19) 0.23357(20) 0.31630(19)
C8J C 0.68370(19) 0.37866(20) 0.26643(19)
C9G C 0.82298(19) 0.20367(19) 0.37477(19)
C9J C 0.62523(19) 0.32298(19) 0.29633(19)
C10G C 0.77732(18) 0.17750(19) 0.42785(19)
C10J C 0.57215(18) 0.27732(19) 0.32250(19)
C11G C 0.72758(18) 0.14593(20) 0.49370(16)
C11J C 0.50630(18) 0.22758(20) 0.35407(16)
C12G C 0.7090(2) 0.18160(19) 0.56877(19)
C12J C 0.43123(20) 0.20900(19) 0.31840(19)
C13G C 0.66083(19) 0.12956(18) 0.62140(18)
C13J C 0.37860(19) 0.16083(18) 0.37044(18)
C14G C 0.64374(18) 0.05339(17) 0.58714(17)
C14J C 0.41286(18) 0.14374(17) 0.44661(17)
C15G C 0.59668(20) -0.01740(19) 0.62480(19)
C15J C 0.3752(2) 0.09668(19) 0.51740(19)
C16G C 0.5021(2) -0.0138(2) 0.6101(2)
C16J C 0.3899(2) 0.0021(2) 0.5138(2)
H1J H 1.0130(19) 0.6327(20) -0.0387(19)
H1G H 1.1327(19) 0.5387(20) -0.0130(19)
H2J H 1.0091(19) 0.6154(19) 0.0522(18)
H2G H 1.1154(19) 0.4478(19) -0.0091(18)
H3J H 0.880(2) 0.665(2) 0.012(2)
H3G H 1.165(2) 0.488(2) 0.120(2)
H4J H 0.869(2) 0.579(2) -0.037(2)
H4G H 1.079(2) 0.537(2) 0.131(2)
H5G H 1.154(2) 0.316(2) 0.109(2)
H5J H 0.891(2) 0.654(2) 0.184(2)
H6G H 1.072(2) 0.215(2) 0.182(2)
H6J H 0.818(2) 0.572(2) 0.285(2)
H7G H 0.729(3) 0.233(3) 0.583(3)
H7J H 0.417(3) 0.229(3) 0.267(3)
H8G H 0.6480(19) 0.1443(20) 0.672(2)
H8J H 0.3280(19) 0.148(2) 0.3557(20)
H9J H 0.392(2) 0.119(2) 0.571(2)
H9G H 0.619(2) -0.071(2) 0.608(2)
H10J H 0.320(2) 0.106(3) 0.513(2)
H10G H 0.606(2) -0.013(3) 0.680(2)
H11J H 0.375(2) -0.017(2) 0.461(2)
H11G H 0.483(2) 0.039(2) 0.625(2)
H12J H 0.353(2) -0.031(2) 0.554(2)
H12G H 0.469(2) -0.054(2) 0.647(2)
#END

data_CSD_CIF_VOBXEP
_audit_creation_date 1992-04-28
_audit_creation_method CSD-ConQuest-V1
_database_code_CSD VOBXEP
_database_code_depnum_ccdc_archive 'CCDC 1285374'
_chemical_formula_sum 'C6 H21 Cl3 N4 O12'
_chemical_formula_moiety
;
C6 H21 N4 3+,3(Cl1 O4 1-)
;
_journal_coeditor_code "IUCr AL0467"
_journal_coden_Cambridge 591
_journal_volume 47
_journal_year 1991
_journal_page_first 2506
_journal_name_full 'Acta Crystallogr.,Sect.C:Cryst.Struct.Commun. '
loop_
_publ_author_name
"J.Burgess"
"A.Al-Alousy"
"J.Fawcett"
"D.R.Russell"
_chemical_name_systematic
;
tris(2-Ammonioethyl)amine triperchlorate
;
_cell_volume   1667.379
_exptl_crystal_colour 'white'
_exptl_crystal_density_diffrn 1.78
_diffrn_ambient_temperature ?
_diffrn_special_details
;
The study was carried out at room temperature,in the range 283-303K

;
#These two values have been output from a single CSD field.
_refine_ls_R_factor_gt 0.038
_refine_ls_wR_factor_gt 0.038
_symmetry_cell_setting cubic
_symmetry_space_group_name_H-M 'P 21 3'
_symmetry_Int_Tables_number 198
loop_
_symmetry_equiv_pos_site_id
_symmetry_equiv_pos_as_xyz
1 x,y,z
2 z,x,y
3 y,z,x
4 1/2+x,1/2-y,-z
5 1/2+z,1/2-x,-y
6 1/2+y,1/2-z,-x
7 -x,1/2+y,1/2-z
8 -z,1/2+x,1/2-y
9 -y,1/2+z,1/2-x
10 1/2-x,-y,1/2+z
11 1/2-z,-x,1/2+y
12 1/2-y,-z,1/2+x
_cell_length_a 11.858(5)
_cell_length_b 11.858(5)
_cell_length_c 11.858(5)
_cell_angle_alpha 90
_cell_angle_beta 90
_cell_angle_gamma 90
_cell_formula_units_Z 4
loop_
_atom_type_symbol
_atom_type_radius_bond
C 0.68
H 0.23
Cl 0.99
N 0.68
O 0.68
loop_
_atom_site_label
_atom_site_type_symbol
_atom_site_fract_x
_atom_site_fract_y
_atom_site_fract_z
Cl1 Cl 0.27777(7) 0.27777(7) 0.27777(7)
O1 O 0.20763(23) 0.20763(23) 0.20763(23)
O2 O 0.3229(3) 0.36705(29) 0.2108(3)
Cl2 Cl 0.56188(7) 0.56188(7) 0.56188(7)
O3 O 0.63278(22) 0.63278(22) 0.63278(22)
O4 O 0.6001(3) 0.44813(23) 0.57197(28)
Cl3 Cl 0.04327(8) 0.04327(8) 0.04327(8)
O5 O -0.0259(3) -0.0259(3) -0.0259(3)
O6 O 0.0121(4) 0.1587(3) 0.0301(5)
N1 N -0.21963(23) -0.21963(23) -0.21963(23)
C1 C -0.1526(3) -0.1436(3) -0.2919(3)
H1 H -0.1238(3) -0.0733(3) -0.2417(3)
H2 H -0.0808(3) -0.1895(3) -0.3239(3)
C2 C -0.2194(4) -0.0987(3) -0.3904(3)
H3 H -0.1725(4) -0.0311(3) -0.4294(3)
H4 H -0.2990(4) -0.0667(3) -0.3598(3)
N2 N -0.2417(3) -0.1869(3) -0.4759(3)
H5 H -0.278(4) -0.248(4) -0.448(4)
H6 H -0.271(4) -0.156(4) -0.530(4)
H7 H -0.184(5) -0.222(5) -0.491(5)
O2A O 0.2108(3) 0.32290(29) 0.36705(30)
O2B O 0.36705(30) 0.21080(29) 0.3229(3)
O4A O 0.57197(30) 0.60010(23) 0.44813(28)
O4B O 0.44813(30) 0.57197(23) 0.60010(28)
O6A O 0.0301(4) 0.0121(3) 0.1587(5)
O6B O 0.1587(4) 0.0301(3) 0.0121(5)
C1A C -0.2919(3) -0.1526(3) -0.1436(3)
C1B C -0.1436(3) -0.2919(3) -0.1526(3)
H1A H -0.2417(3) -0.1238(3) -0.0733(3)
H2A H -0.3239(3) -0.0808(3) -0.1895(3)
C2A C -0.3904(4) -0.2194(3) -0.0987(3)
H1B H -0.0733(3) -0.2417(3) -0.1238(3)
H2B H -0.1895(3) -0.3239(3) -0.0808(3)
C2B C -0.0987(4) -0.3904(3) -0.2194(3)
H3A H -0.4294(4) -0.1725(3) -0.0311(3)
H4A H -0.3598(4) -0.2990(3) -0.0667(3)
N2A N -0.4759(3) -0.2417(3) -0.1869(3)
H3B H -0.0311(4) -0.4294(3) -0.1725(3)
H4B H -0.0667(4) -0.3598(3) -0.2990(3)
N2B N -0.1869(3) -0.4759(3) -0.2417(3)
H5A H -0.448(4) -0.278(4) -0.248(4)
H6A H -0.530(4) -0.271(4) -0.156(4)
H7A H -0.491(5) -0.184(5) -0.222(5)
H5B H -0.248(4) -0.448(4) -0.278(4)
H6B H -0.156(4) -0.530(4) -0.271(4)
H7B H -0.222(5) -0.491(5) -0.184(5)
#END

data_CSD_CIF_VOBXEP01
_audit_creation_date 2018-10-26
_audit_creation_method CSD-ConQuest-V1
_database_code_CSD VOBXEP01
_database_code_depnum_ccdc_archive 'CCDC 1435060'
_chemical_formula_sum 'C6 H21 Cl3 N4 O12'
_chemical_formula_moiety
;
C6 H21 N4 3+,3(Cl1 O4 1-)
;
_journal_coden_Cambridge 967
_journal_volume 53
_journal_year 2017
_journal_page_first 319
_journal_name_full 'Combustion, Explosion, and Shock Waves '
loop_
_publ_author_name
"Peng Ma"
"Jun-Cheng Jiang"
"Shun-Guan Zhu"
_chemical_name_systematic
;
2,2',2''-nitrilotriethanaminium triperchlorate
;
_cell_volume   1678.371
_exptl_crystal_colour 'white'
_exptl_crystal_density_diffrn 1.771
_exptl_crystal_preparation 'Re-crystallisation from solvent'
_diffrn_ambient_temperature 293
#These two values have been output from a single CSD field.
_refine_ls_R_factor_gt 0.0457
_refine_ls_wR_factor_gt 0.0457
_symmetry_cell_setting cubic
_symmetry_space_group_name_H-M 'P 21 3'
_symmetry_Int_Tables_number 198
loop_
_symmetry_equiv_pos_site_id
_symmetry_equiv_pos_as_xyz
1 x,y,z
2 1/2-x,-y,1/2+z
3 -x,1/2+y,1/2-z
4 1/2+x,1/2-y,-z
5 z,x,y
6 1/2+z,1/2-x,-y
7 1/2-z,-x,1/2+y
8 -z,1/2+x,1/2-y
9 y,z,x
10 -y,1/2+z,1/2-x
11 1/2+y,1/2-z,-x
12 1/2-y,-z,1/2+x
_cell_length_a 11.8840(14)
_cell_length_b 11.8840(14)
_cell_length_c 11.8840(14)
_cell_angle_alpha 90
_cell_angle_beta 90
_cell_angle_gamma 90
_cell_formula_units_Z 4
loop_
_atom_type_symbol
_atom_type_radius_bond
C 0.68
H 0.23
Cl 0.99
N 0.68
O 0.68
loop_
_atom_site_label
_atom_site_type_symbol
_atom_site_fract_x
_atom_site_fract_y
_atom_site_fract_z
Cl1 Cl 0.02818(6) 0.02818(6) 0.02818(6)
O1 O -0.04164(19) -0.04164(19) -0.04164(19)
O2 O 0.1171(3) 0.0742(3) -0.0387(3)
C1 C 0.1058(3) -0.0970(3) -0.4580(3)
H1 H 0.16820 -0.12410 -0.50310
H2 H 0.06540 -0.16200 -0.42960
N1 N 0.0297(2) -0.0297(2) -0.5297(2)
N2 N 0.0625(3) -0.0083(3) -0.2741(2)
H3 H 0.09130 0.03140 -0.21750
H4 H 0.03670 -0.07360 -0.24810
H5 H 0.00630 0.03000 -0.30550
C2 C 0.1513(3) -0.0296(3) -0.3595(3)
H6 H 0.21290 -0.07050 -0.32490
H7 H 0.18040 0.04160 -0.38670
Cl2 Cl 0.68845(6) 0.81155(6) 0.18845(6)
O3 O 0.61759(17) 0.88241(17) 0.11759(17)
O4 O 0.6496(2) 0.8211(3) 0.3021(2)
Cl3 Cl 0.29366(7) 0.70634(7) 0.20634(7)
O5 O 0.2248(2) 0.7752(2) 0.2752(2)
O6 O 0.2804(4) 0.5915(3) 0.2375(3)
O2D O -0.0387(3) 0.1171(3) 0.0742(3)
O2H O 0.0742(3) -0.0387(3) 0.1171(3)
C1F C -0.0420(3) -0.1058(3) -0.5970(3)
H1F H 0.00310 -0.16820 -0.62410
H2F H -0.07040 -0.06540 -0.66200
N2F N -0.2259(3) -0.0625(3) -0.5083(2)
H3F H -0.28250 -0.09130 -0.46860
H4F H -0.25190 -0.03670 -0.57360
H5F H -0.19450 -0.00630 -0.47000
C2F C -0.1405(3) -0.1513(3) -0.5296(3)
H6F H -0.17510 -0.21290 -0.57050
H7F H -0.11330 -0.18040 -0.45840
C1I C 0.0970(3) 0.0420(3) -0.6058(3)
H1I H 0.12410 -0.00310 -0.66820
H2I H 0.16200 0.07040 -0.56540
N2I N 0.0083(3) 0.2259(3) -0.5625(2)
H3I H -0.03140 0.28250 -0.59130
H4I H 0.07360 0.25190 -0.53670
H5I H -0.03000 0.19450 -0.50630
C2I C 0.0296(3) 0.1405(3) -0.6513(3)
H6I H 0.07050 0.17510 -0.71290
H7I H -0.04160 0.11330 -0.68040
O4E O 0.8021(2) 0.8504(3) 0.1789(2)
O4K O 0.6789(2) 0.6979(3) 0.1496(2)
O6F O 0.2625(4) 0.7196(3) 0.0915(3)
O6I O 0.4085(4) 0.7375(3) 0.2196(3)
#END

data_CSD_CIF_VUYDEZ
_audit_creation_date 2010-07-30
_audit_creation_method CSD-ConQuest-V1
_database_code_CSD VUYDEZ
_database_code_depnum_ccdc_archive 'CCDC 781191'
_chemical_formula_sum 'C6 H21 Br1 N4 Ni1 O6'
_chemical_formula_moiety
;
C6 H21 N3 Ni1 O3 2+,N1 O3 1-,Br1 1-
;
_journal_coeditor_code "IUCr PB2027"
_journal_coden_Cambridge 1370
_journal_volume 66
_journal_year 2010
_journal_page_first m624
_journal_name_full 'Acta Crystallogr.,Sect.E:Struct.Rep.Online '
loop_
_publ_author_name
"Changchun Wen"
"Jianqi Lu"
"Zhong Zhang"
_chemical_name_systematic
;
Triaqua-(1,4,7-triazacyclononane-N^1^,N^4^,N^7^)-nickel(ii) bromide nitrate
;
_cell_volume   1442.897
_exptl_crystal_colour 'green'
_exptl_crystal_density_diffrn 1.767
_exptl_crystal_description 'plate'
_diffrn_ambient_temperature 298
#These two values have been output from a single CSD field.
_refine_ls_R_factor_gt 0.0354
_refine_ls_wR_factor_gt 0.0354
_symmetry_cell_setting cubic
_symmetry_space_group_name_H-M 'P 21 3'
_symmetry_Int_Tables_number 198
loop_
_symmetry_equiv_pos_site_id
_symmetry_equiv_pos_as_xyz
1 x,y,z
2 1/2-x,-y,1/2+z
3 -x,1/2+y,1/2-z
4 1/2+x,1/2-y,-z
5 z,x,y
6 1/2+z,1/2-x,-y
7 1/2-z,-x,1/2+y
8 -z,1/2+x,1/2-y
9 y,z,x
10 -y,1/2+z,1/2-x
11 1/2+y,1/2-z,-x
12 1/2-y,-z,1/2+x
_cell_length_a 11.300(1)
_cell_length_b 11.300(1)
_cell_length_c 11.300(1)
_cell_angle_alpha 90
_cell_angle_beta 90
_cell_angle_gamma 90
_cell_formula_units_Z 4
loop_
_atom_type_symbol
_atom_type_radius_bond
C 0.68
H 0.23
Br 1.21
N 0.68
Ni 1.24
O 0.68
loop_
_atom_site_label
_atom_site_type_symbol
_atom_site_fract_x
_atom_site_fract_y
_atom_site_fract_z
Ni1 Ni 1.06169(4) 0.56169(4) 0.93831(4)
Br1 Br 0.25347(4) 0.24653(4) 0.75347(4)
C1 C 0.8566(4) 0.4233(4) 0.8872(4)
H1 H 0.81230 0.34980 0.88580
H2 H 0.84380 0.46360 0.81250
C2 C 1.0118(4) 0.3128(4) 0.9995(4)
H3 H 1.03260 0.23650 0.96600
H4 H 0.94170 0.30220 1.04780
N1 N 0.9850(3) 0.3973(3) 0.9019(3)
H5 H 1.02260 0.36310 0.84070
N2 N 0.9466(3) 0.9466(3) 0.9466(3)
O1 O 1.0196(3) 0.6447(3) 0.7786(3)
O2 O 0.8854(3) 1.0345(3) 0.9196(3)
H6 H 0.947(5) 0.659(4) 0.765(4)
H7 H 1.040(4) 0.598(4) 0.723(4)
C1G C 1.1128(4) 0.3566(4) 1.0767(4)
C1J C 0.9233(4) 0.6128(4) 1.1434(4)
H1G H 1.11420 0.31230 1.15020
H1J H 0.84980 0.61420 1.18770
H2G H 1.18750 0.34380 1.03640
H2J H 0.96360 0.68750 1.15620
C2G C 1.0005(4) 0.5118(4) 1.1872(4)
C2J C 0.8128(4) 0.5005(4) 0.9882(4)
H3G H 1.03400 0.53260 1.26350
H3J H 0.73650 0.53400 0.96740
H4G H 0.95220 0.44170 1.19780
H4J H 0.80220 0.45220 1.05830
N1G N 1.0981(3) 0.4850(3) 1.1027(3)
N1J N 0.8973(3) 0.5981(3) 1.0150(3)
H5G H 1.15930 0.52260 1.13690
H5J H 0.86310 0.65930 0.97740
O1G O 1.2214(3) 0.5196(3) 0.8553(3)
O1J O 1.1447(3) 0.7214(3) 0.9804(3)
O2D O 0.9196(3) 0.8854(3) 1.0345(3)
O2H O 1.0345(3) 0.9196(3) 0.8854(3)
H6G H 1.235(5) 0.447(4) 0.841(4)
H6J H 1.159(5) 0.735(4) 1.053(4)
H7G H 1.277(4) 0.540(4) 0.902(4)
H7J H 1.098(4) 0.777(4) 0.960(4)
#END

data_CSD_CIF_WILZIA
_audit_creation_date 1995-10-19
_audit_creation_method CSD-ConQuest-V1
_database_code_CSD WILZIA
_database_code_depnum_ccdc_fiz 'CSD 58323'
_chemical_formula_sum 'C24 H54 Au1 Cl1 P2'
_chemical_formula_moiety
;
C24 H54 Au1 P2 1+,Cl1 1-
;
_journal_coden_Cambridge 644
_journal_volume 49
_journal_year 1994
_journal_page_first 1243
_journal_name_full 'Z.Naturforsch.,B:Chem.Sci. '
loop_
_publ_author_name
"E.Zeller"
"A.Schier"
"H.Schmidbaur"
_chemical_name_systematic
;
bis(Tri-t-butylphosphine)-gold(i) chloride
;
_chemical_melting_point ?
_cell_volume   2922.367
_exptl_crystal_colour 'dark red'
_exptl_crystal_density_diffrn 1.448
_exptl_special_details
;
Decomposes above 443.15K

;
_diffrn_ambient_temperature 217.15
#These two values have been output from a single CSD field.
_refine_ls_R_factor_gt 0.0303
_refine_ls_wR_factor_gt 0.0303
_symmetry_cell_setting cubic
_symmetry_space_group_name_H-M 'P 21 3'
_symmetry_Int_Tables_number 198
loop_
_symmetry_equiv_pos_site_id
_symmetry_equiv_pos_as_xyz
1 x,y,z
2 1/2-x,-y,1/2+z
3 1/2+x,1/2-y,-z
4 z,x,y
5 -x,1/2+y,1/2-z
6 1/2-z,-x,1/2+y
7 1/2+z,1/2-x,-y
8 -z,1/2+x,1/2-y
9 y,z,x
10 1/2+y,1/2-z,-x
11 -y,1/2+z,1/2-x
12 1/2-y,-z,1/2+x
_cell_length_a 14.297(1)
_cell_length_b 14.297(1)
_cell_length_c 14.297(1)
_cell_angle_alpha 90
_cell_angle_beta 90
_cell_angle_gamma 90
_cell_formula_units_Z 4
loop_
_atom_type_symbol
_atom_type_radius_bond
C 0.68
H 0.23
Au 1.50
Cl 0.99
P 1.05
loop_
_atom_site_label
_atom_site_type_symbol
_atom_site_fract_x
_atom_site_fract_y
_atom_site_fract_z
Au1 Au 0.2345(1) 0.7345(1) 0.7655(1)
P1 P 0.3283(1) 0.8283(1) 0.6717(1)
P2 P 0.1408(1) 0.6408(1) 0.8592(1)
C1 C 0.2833(5) 0.8196(4) 0.5476(4)
C2 C 0.2613(8) 0.7165(6) 0.5257(6)
C3 C 0.3485(7) 0.8601(8) 0.4751(5)
C4 C 0.1908(6) 0.8699(9) 0.5365(7)
C5 C 0.1747(4) 0.6622(4) 0.9859(4)
C6 C 0.1369(5) 0.7596(5) 1.0148(4)
C7 C 0.2804(5) 0.6697(5) 0.9947(5)
C8 C 0.1374(5) 0.5892(5) 1.0551(5)
Cl1 Cl 0.2427(1) 0.7573(1) 1.2573(1)
H1 H 0.3184(9) 0.6812(11) 0.5247(51)
H2 H 0.2313(48) 0.7123(8) 0.4658(24)
H3 H 0.2205(42) 0.6918(16) 0.5729(29)
H4 H 0.4096(16) 0.8334(42) 0.4826(36)
H5 H 0.3521(44) 0.9267(10) 0.4829(36)
H6 H 0.3253(32) 0.846(5) 0.4137(5)
H7 H 0.1449(18) 0.8413(42) 0.5764(49)
H8 H 0.1706(32) 0.8658(56) 0.4726(16)
H9 H 0.1981(17) 0.9344(17) 0.5536(61)
H10 H 0.0703(7) 0.7564(10) 1.0226(36)
H11 H 0.1517(33) 0.8044(9) 0.9670(18)
H12 H 0.1653(28) 0.7783(17) 1.0727(19)
H13 H 0.3028(6) 0.7185(25) 0.9544(28)
H14 H 0.3085(5) 0.6114(13) 0.9769(35)
H15 H 0.2966(5) 0.6839(36) 1.0583(9)
H16 H 0.0705(6) 0.5856(28) 1.0500(27)
H17 H 0.1541(34) 0.6070(21) 1.1176(6)
H18 H 0.1642(30) 0.5292(9) 1.0410(24)
C1G C 0.4524(5) 0.7833(4) 0.6804(4)
C1I C 0.3196(5) 0.9524(4) 0.7167(4)
C5G C 0.0141(4) 0.6747(4) 0.8378(4)
C5I C 0.1622(4) 0.5141(4) 0.8253(4)
C2G C 0.4743(8) 0.7613(6) 0.7835(6)
C3G C 0.5249(7) 0.8485(8) 0.6399(5)
C4G C 0.4635(6) 0.6908(9) 0.6301(7)
C2I C 0.2165(8) 0.9743(6) 0.7387(6)
C3I C 0.3601(7) 1.0249(8) 0.6515(5)
C4I C 0.3699(6) 0.9635(9) 0.8092(7)
C6G C -0.0148(5) 0.6369(5) 0.7404(4)
C7G C 0.0053(5) 0.7804(5) 0.8303(5)
C8G C -0.0551(5) 0.6374(5) 0.9108(5)
C6I C 0.2596(5) 0.4852(5) 0.8631(4)
C7I C 0.1697(5) 0.5053(5) 0.7196(5)
C8I C 0.0892(5) 0.4449(5) 0.8626(5)
H1G H 0.4753(9) 0.8184(11) 0.8188(51)
H2G H 0.5342(48) 0.7313(8) 0.7877(24)
H3G H 0.4271(42) 0.7205(16) 0.8082(29)
H4G H 0.5174(16) 0.9096(42) 0.6666(36)
H5G H 0.5171(44) 0.8521(10) 0.5733(36)
H6G H 0.5863(32) 0.8253(50) 0.6540(5)
H7G H 0.4236(18) 0.6449(42) 0.6587(49)
H8G H 0.5274(32) 0.6706(56) 0.6342(16)
H9G H 0.4464(17) 0.6981(17) 0.5656(61)
H1I H 0.1812(9) 0.9753(11) 0.6816(51)
H2I H 0.2123(48) 1.0342(8) 0.7687(24)
H3I H 0.1918(42) 0.9271(16) 0.7795(29)
H4I H 0.3334(16) 1.0174(42) 0.5904(36)
H5I H 0.4267(44) 1.0171(10) 0.6479(36)
H6I H 0.3460(32) 1.0863(50) 0.6747(5)
H7I H 0.3413(18) 0.9236(42) 0.8551(49)
H8I H 0.3658(32) 1.0274(56) 0.8294(16)
H9I H 0.4344(17) 0.9464(17) 0.8019(61)
H10G H -0.0226(7) 0.5703(10) 0.7436(36)
H11G H 0.0330(33) 0.6517(9) 0.6956(18)
H12G H -0.0727(28) 0.6653(17) 0.7217(19)
H13G H 0.0456(6) 0.8028(25) 0.7815(28)
H14G H 0.0231(5) 0.8085(13) 0.8886(35)
H15G H -0.0583(5) 0.7966(36) 0.8161(9)
H16G H -0.0500(6) 0.5705(28) 0.9144(27)
H17G H -0.1176(34) 0.6541(21) 0.8930(6)
H18G H -0.041(3) 0.6642(9) 0.9708(24)
H10I H 0.2564(7) 0.4774(10) 0.9297(36)
H11I H 0.3044(33) 0.5330(9) 0.8483(18)
H12I H 0.2783(28) 0.4273(17) 0.8347(19)
H13I H 0.2185(6) 0.5456(25) 0.6972(28)
H14I H 0.1114(5) 0.5231(13) 0.6915(35)
H15I H 0.1839(5) 0.4417(36) 0.7034(9)
H16I H 0.0856(6) 0.4500(28) 0.9295(27)
H17I H 0.1070(34) 0.3824(21) 0.8459(6)
H18I H 0.0292(30) 0.4590(9) 0.8358(24)
#END

data_CSD_CIF_WILZIA01
_audit_creation_date 2011-08-29
_audit_creation_method CSD-ConQuest-V1
_database_code_CSD WILZIA01
_database_code_depnum_ccdc_archive 'CCDC 746943'
_chemical_formula_sum 'C24 H54 Au1 Cl1 P2'
_chemical_formula_moiety
;
C24 H54 Au1 P2 1+,Cl1 1-
;
_journal_coden_Cambridge 294
_journal_volume 957
_journal_year 2010
_journal_page_first 21
_journal_name_full 'J.Mol.Struct.:THEOCHEM '
loop_
_publ_author_name
"M.Touil"
"B.Bechem"
"A.S.K.Hashmi"
"B.Engels"
"M.A.Omary"
"H.Rabaa"
_chemical_name_systematic
;
bis(tri-t-butylphosphine)-gold(i) chloride
;
_cell_volume   2943.820
_exptl_crystal_colour 'colorless'
_exptl_crystal_density_diffrn 1.437
_exptl_crystal_description 'block'
_diffrn_ambient_temperature 293
#These two values have been output from a single CSD field.
_refine_ls_R_factor_gt 0.046
_refine_ls_wR_factor_gt 0.046
_symmetry_cell_setting cubic
_symmetry_space_group_name_H-M 'P 21 3'
_symmetry_Int_Tables_number 198
loop_
_symmetry_equiv_pos_site_id
_symmetry_equiv_pos_as_xyz
1 x,y,z
2 1/2-x,-y,1/2+z
3 -x,1/2+y,1/2-z
4 1/2+x,1/2-y,-z
5 z,x,y
6 1/2+z,1/2-x,-y
7 1/2-z,-x,1/2+y
8 -z,1/2+x,1/2-y
9 y,z,x
10 -y,1/2+z,1/2-x
11 1/2+y,1/2-z,-x
12 1/2-y,-z,1/2+x
_cell_length_a 14.3319(14)
_cell_length_b 14.3319(14)
_cell_length_c 14.3319(14)
_cell_angle_alpha 90
_cell_angle_beta 90
_cell_angle_gamma 90
_cell_formula_units_Z 4
loop_
_atom_type_symbol
_atom_type_radius_bond
C 0.68
H 0.23
Au 1.36
Cl 0.99
P 1.05
loop_
_atom_site_label
_atom_site_type_symbol
_atom_site_fract_x
_atom_site_fract_y
_atom_site_fract_z
Au1 Au 0.98597(2) 0.01403(2) 0.51403(2)
P1 P 0.89252(18) 0.10748(18) 0.60748(18)
C1 C 0.7665(7) 0.0860(7) 0.5753(8)
P2 P 1.07935(18) -0.07935(18) 0.42065(18)
C2 C 0.7589(8) 0.078(1) 0.4697(10)
H1 H 0.80250 0.03210 0.44760
H2 H 0.77280 0.13730 0.44170
H3 H 0.69670 0.05950 0.45310
C3 C 0.7364(8) -0.0082(9) 0.6124(9)
H4 H 0.73990 -0.00790 0.67930
H5 H 0.77700 -0.05570 0.58820
H6 H 0.67350 -0.02070 0.59330
C4 C 0.6984(8) 0.1567(9) 0.6105(9)
H7 H 0.70270 0.16050 0.67730
H8 H 0.63630 0.13840 0.59320
H9 H 0.71230 0.21650 0.58380
C5 C 1.2037(8) -0.0710(9) 0.4637(9)
C6 C 1.2268(11) 0.0344(10) 0.4802(17)
H10 H 1.18150 0.06090 0.52180
H11 H 1.22520 0.06700 0.42170
H12 H 1.28790 0.03990 0.50710
C7 C 1.2116(12) -0.1117(16) 0.5594(14)
H13 H 1.16460 -0.08490 0.59900
H14 H 1.27220 -0.09810 0.58450
H15 H 1.20300 -0.17800 0.55630
C8 C 1.2771(9) -0.1162(15) 0.4010(13)
H16 H 1.27200 -0.09110 0.33910
H17 H 1.26710 -0.18240 0.39910
H18 H 1.33820 -0.10350 0.42530
Cl1 Cl 0.50608(18) 0.49392(18) 0.99392(18)
C1F C 0.9247(7) 0.2335(7) 0.5860(8)
C1I C 0.9140(7) 0.0753(7) 0.7335(8)
C2F C 1.0303(8) 0.2411(10) 0.578(1)
C2I C 0.9220(8) -0.0303(10) 0.7411(10)
H1F H 1.05240 0.19750 0.53210
H1I H 0.96790 -0.05240 0.69750
H2F H 1.05830 0.22720 0.63730
H2I H 0.86270 -0.05830 0.72720
H3F H 1.04690 0.30330 0.55950
H3I H 0.94050 -0.04690 0.80330
C3F C 0.8876(8) 0.2636(9) 0.4918(9)
C3I C 1.0082(8) 0.1124(9) 0.7636(9)
H4F H 0.82070 0.26010 0.49210
H4I H 1.00790 0.17930 0.76010
H5F H 0.91180 0.22300 0.44430
H5I H 1.05570 0.08820 0.72300
H6F H 0.90670 0.32650 0.47930
H6I H 1.02070 0.09330 0.82650
C4F C 0.8895(8) 0.3016(9) 0.6567(9)
C4I C 0.8433(8) 0.1105(9) 0.8016(9)
H7F H 0.82270 0.29730 0.66050
H7I H 0.83950 0.17730 0.79730
H8F H 0.90680 0.36370 0.63840
H8I H 0.86160 0.09320 0.86370
H9F H 0.91620 0.28770 0.71650
H9I H 0.78350 0.08380 0.78770
C5F C 1.0363(8) -0.2037(9) 0.4290(9)
C5I C 1.0710(8) -0.0363(9) 0.2963(9)
C6F C 1.0198(11) -0.2268(10) 0.5344(17)
C6I C 0.9656(11) -0.0198(10) 0.2732(17)
H10F H 0.97820 -0.18150 0.56090
H10I H 0.93910 0.02180 0.31850
H11F H 1.07830 -0.22520 0.56700
H11I H 0.93300 -0.07830 0.27480
H12F H 0.99290 -0.28790 0.53990
H12I H 0.96010 0.00710 0.21210
C7F C 0.9406(12) -0.2116(16) 0.3883(14)
C7I C 1.1117(12) 0.0594(16) 0.2884(14)
H13F H 0.90100 -0.16460 0.41510
H13I H 1.08490 0.09900 0.33540
H14F H 0.91550 -0.27220 0.40190
H14I H 1.09810 0.08450 0.22780
H15F H 0.94370 -0.20300 0.32200
H15I H 1.17800 0.05630 0.29700
C8F C 1.0990(9) -0.2771(15) 0.3838(13)
C8I C 1.1162(9) -0.0990(15) 0.2229(13)
H16F H 1.16090 -0.27200 0.40890
H16I H 1.09110 -0.16090 0.22800
H17F H 1.10090 -0.26710 0.31760
H17I H 1.18240 -0.10090 0.23290
H18F H 1.07470 -0.33820 0.39650
H18I H 1.10350 -0.07470 0.16180
#END

data_CSD_CIF_WOKSUM
_audit_creation_date 2014-08-04
_audit_creation_method CSD-ConQuest-V1
_database_code_CSD WOKSUM
_database_code_depnum_ccdc_archive 'CCDC 980916'
_chemical_formula_sum 'C12 H19 N1 O8 U1'
_chemical_formula_moiety
;
C12 H15 O8 U1 1-,H4 N1 1+
;
_journal_coden_Cambridge 119
_journal_volume 1074
_journal_year 2014
_journal_page_first 583
_journal_name_full 'J.Mol.Struct. '
loop_
_publ_author_name
"A.V.Savchenkov"
"E.V.Peresypkina"
"D.V.Pushkin"
"A.V.Virovets"
"L.B.Serezhkina"
"V.N.Serezhkin"
_chemical_name_systematic
;
ammonium tris(but-2-enoato)-dioxo-uranium
;
_cell_volume   1930.758
_exptl_crystal_colour 'yellow'
_exptl_crystal_density_diffrn 1.869
_exptl_special_details
;
alpha polymorph

;
_exptl_crystal_description 'prism'
_exptl_crystal_preparation 'water'
_diffrn_ambient_temperature 123
#These two values have been output from a single CSD field.
_refine_ls_R_factor_gt 0.0326
_refine_ls_wR_factor_gt 0.0326
_symmetry_cell_setting cubic
_symmetry_space_group_name_H-M 'P 21 3'
_symmetry_Int_Tables_number 198
loop_
_symmetry_equiv_pos_site_id
_symmetry_equiv_pos_as_xyz
1 x,y,z
2 1/2-x,-y,1/2+z
3 -x,1/2+y,1/2-z
4 1/2+x,1/2-y,-z
5 z,x,y
6 1/2+z,1/2-x,-y
7 1/2-z,-x,1/2+y
8 -z,1/2+x,1/2-y
9 y,z,x
10 -y,1/2+z,1/2-x
11 1/2+y,1/2-z,-x
12 1/2-y,-z,1/2+x
_cell_length_a 12.4521(1)
_cell_length_b 12.4521(1)
_cell_length_c 12.4521(1)
_cell_angle_alpha 90
_cell_angle_beta 90
_cell_angle_gamma 90
_cell_formula_units_Z 4
loop_
_atom_type_symbol
_atom_type_radius_bond
C 0.68
H 0.23
N 0.68
O 0.68
U 1.96
loop_
_atom_site_label
_atom_site_type_symbol
_atom_site_fract_x
_atom_site_fract_y
_atom_site_fract_z
U1 U 0.58299(3) 0.08299(3) -0.58299(3)
O1 O 0.6629(6) 0.1629(6) -0.6629(6)
O2 O 0.5021(7) 0.0021(7) -0.5021(7)
O3 O 0.4915(6) 0.2420(7) -0.5075(6)
O4 O 0.6318(6) 0.1853(6) -0.4218(7)
C1 C 0.5516(9) 0.2482(9) -0.4247(10)
C2 C 0.5297(11) 0.3238(13) -0.3383(12)
H1 H 0.57890 0.32780 -0.28230
C3 C 0.4472(16) 0.3856(17) -0.3343(15)
H2 H 0.39940 0.38010 -0.39140
C4 C 0.4186(19) 0.465(2) -0.2489(17)
H3 H 0.39600 0.53130 -0.28180
H4 H 0.48020 0.47860 -0.20440
H5 H 0.36130 0.43720 -0.20560
N1 N 0.8429(8) 0.1571(8) -0.3429(8)
O3G O 0.5075(6) -0.0085(7) -0.7420(6)
O4G O 0.4218(6) 0.1318(6) -0.6853(7)
C1G C 0.4247(9) 0.0516(9) -0.7482(10)
C2G C 0.3383(11) 0.0297(13) -0.8238(12)
H1G H 0.28230 0.07890 -0.82780
C3G C 0.3343(16) -0.0528(17) -0.8856(15)
H2G H 0.39140 -0.10060 -0.88010
C4G C 0.2489(19) -0.0814(20) -0.9650(17)
H3G H 0.28180 -0.10400 -1.03130
H4G H 0.20440 -0.01980 -0.97860
H5G H 0.20560 -0.13870 -0.93720
O3J O 0.7420(6) 0.0075(7) -0.4915(6)
O4J O 0.6853(6) -0.0782(6) -0.6318(7)
C1J C 0.7482(9) -0.0753(9) -0.5516(10)
C2J C 0.8238(11) -0.1617(13) -0.5297(12)
H1J H 0.82780 -0.21770 -0.57890
C3J C 0.8856(16) -0.1657(17) -0.4472(15)
H2J H 0.88010 -0.10860 -0.39940
C4J C 0.9650(19) -0.2511(20) -0.4186(17)
H3J H 1.03130 -0.21820 -0.39600
H4J H 0.97860 -0.29560 -0.48020
H5J H 0.93720 -0.29440 -0.36130
#END

data_CSD_CIF_XEWHUE
_audit_creation_date 2013-05-20
_audit_creation_method CSD-ConQuest-V1
_database_code_CSD XEWHUE
_database_code_depnum_ccdc_archive 'CCDC 894297'
_chemical_formula_sum 'C56 H51 Cl2 Fe1 N7 O8'
_chemical_formula_moiety
;
C54 H48 Fe1 N6 2+,2(Cl1 O4 1-),C2 H3 N1
;
_journal_coden_Cambridge 580
_journal_volume 51
_journal_year 2013
_journal_page_first 186
_journal_name_full 'Polyhedron '
loop_
_publ_author_name
"Zhi-Guo Gu"
"Jing-Jing Na"
"Fei-Fei Bao"
"Xin-Xin Xu"
"Wen Zhou"
"Chun-Yan Pang"
"Zaijun Li"
_chemical_name_systematic
;
tris(1-(1-Naphthyl)-N-((pyridin-2-yl)methylene)ethanamine)-iron(ii) 
diperchlorate acetonitrile solvate
;
_cell_volume   5240.823
_exptl_crystal_colour 'purple'
_exptl_crystal_density_diffrn 1.365
_exptl_crystal_description 'block'
_diffrn_ambient_temperature 298
#These two values have been output from a single CSD field.
_refine_ls_R_factor_gt 0.0489
_refine_ls_wR_factor_gt 0.0489
_symmetry_cell_setting cubic
_symmetry_space_group_name_H-M 'P 21 3'
_symmetry_Int_Tables_number 198
loop_
_symmetry_equiv_pos_site_id
_symmetry_equiv_pos_as_xyz
1 x,y,z
2 1/2-x,-y,1/2+z
3 -x,1/2+y,1/2-z
4 1/2+x,1/2-y,-z
5 z,x,y
6 1/2+z,1/2-x,-y
7 1/2-z,-x,1/2+y
8 -z,1/2+x,1/2-y
9 y,z,x
10 -y,1/2+z,1/2-x
11 1/2+y,1/2-z,-x
12 1/2-y,-z,1/2+x
_cell_length_a 17.370(2)
_cell_length_b 17.370(2)
_cell_length_c 17.370(2)
_cell_angle_alpha 90
_cell_angle_beta 90
_cell_angle_gamma 90
_cell_formula_units_Z 4
loop_
_atom_type_symbol
_atom_type_radius_bond
C 0.68
H 0.23
Cl 0.99
Fe 1.52
N 0.68
O 0.68
loop_
_atom_site_label
_atom_site_type_symbol
_atom_site_fract_x
_atom_site_fract_y
_atom_site_fract_z
Fe1 Fe 0.84305(3) 0.65695(3) 0.34305(3)
C1 C 0.8657(2) 0.7701(2) 0.2137(2)
H1 H 0.84140 0.80730 0.24350
C2 C 0.8904(3) 0.7894(2) 0.1403(3)
H2 H 0.88150 0.83880 0.12160
C3 C 0.9270(3) 0.7376(3) 0.0956(2)
H3 H 0.94440 0.75080 0.04680
C4 C 0.9379(3) 0.6641(3) 0.1247(2)
H4 H 0.96200 0.62670 0.09500
C5 C 0.9127(2) 0.6469(2) 0.1982(2)
C6 C 0.9219(2) 0.5724(2) 0.2338(2)
H5 H 0.94650 0.53240 0.20810
C7 C 0.90414(19) 0.48756(18) 0.3393(2)
H6 H 0.91470 0.49730 0.39390
C8 C 0.9712(2) 0.4400(2) 0.3078(3)
H7 H 0.95940 0.42340 0.25640
H8 H 0.97910 0.39580 0.34000
H9 H 1.01700 0.47090 0.30720
C9 C 0.83050(19) 0.44012(18) 0.33522(19)
C10 C 0.7830(2) 0.4452(2) 0.2719(2)
H10 H 0.79590 0.47910 0.23260
C11 C 0.7165(3) 0.4011(3) 0.2649(3)
H11 H 0.68610 0.40520 0.22100
C12 C 0.6962(3) 0.3521(3) 0.3225(3)
H12 H 0.64990 0.32540 0.31930
C13 C 0.7446(2) 0.3411(3) 0.3873(2)
C14 C 0.7267(3) 0.2848(3) 0.4428(3)
H13 H 0.68130 0.25680 0.43910
C15 C 0.7766(4) 0.2718(3) 0.5022(3)
H14 H 0.76390 0.23610 0.54000
C16 C 0.8466(4) 0.3118(2) 0.5068(2)
H15 H 0.88140 0.30010 0.54570
C17 C 0.8136(2) 0.3847(2) 0.3926(2)
C18 C 0.8640(3) 0.3673(2) 0.4549(2)
H16 H 0.90970 0.39460 0.46010
N1 N 0.87609(17) 0.69910(16) 0.24303(17)
N2 N 0.89519(16) 0.56325(16) 0.30139(16)
C19 C 0.9228(6) 0.0772(6) 0.5772(6)
H17 H 0.91430 0.08970 0.52400
C20 C 0.8748(5) 0.1252(5) 0.6252(5)
N3 N 0.8373(5) 0.1627(5) 0.6627(5)
Cl1 Cl 0.95051(10) 0.45051(10) 0.04949(10)
O1 O 0.9754(4) 0.4041(3) -0.0111(2)
O2 O 0.90225(19) 0.40225(19) 0.09775(19)
Cl2 Cl 0.06712(8) 0.43288(8) 0.56712(8)
O3 O 0.0257(4) 0.3669(4) 0.5876(6)
O4 O 0.01904(15) 0.48096(15) 0.51904(15)
H18? H 0.91440 0.08980 0.52400
H19? H 0.91440 0.08970 0.52410
C1E C 0.7137(2) 0.6343(2) 0.2299(2)
H1E H 0.74350 0.65860 0.19270
C2E C 0.6403(3) 0.6096(2) 0.2106(3)
H2E H 0.62160 0.61850 0.16120
C3E C 0.5956(3) 0.5730(3) 0.2624(2)
H3E H 0.54680 0.55560 0.24920
C4E C 0.6247(3) 0.5621(3) 0.3359(2)
H4E H 0.59500 0.53800 0.37330
C5E C 0.6982(2) 0.5873(2) 0.3531(2)
C6E C 0.7338(2) 0.5781(2) 0.4276(2)
H5E H 0.70810 0.55350 0.46760
C7E C 0.83930(19) 0.59586(18) 0.51244(20)
H6E H 0.89390 0.58530 0.50270
C8E C 0.8078(2) 0.5288(2) 0.5600(3)
H7E H 0.75640 0.54060 0.57660
H8E H 0.84000 0.52090 0.60420
H9E H 0.80720 0.48300 0.52910
C9E C 0.83522(19) 0.66950(18) 0.55988(19)
C10E C 0.7719(2) 0.7170(2) 0.5548(2)
H10E H 0.73260 0.70410 0.52090
C11E C 0.7649(3) 0.7835(3) 0.5989(3)
H11E H 0.72100 0.81390 0.59480
C12E C 0.8225(3) 0.8038(3) 0.6479(3)
H12E H 0.81930 0.85010 0.67460
C13E C 0.8873(2) 0.7554(3) 0.6589(2)
C14E C 0.9428(3) 0.7733(3) 0.7152(3)
H13E H 0.93910 0.81870 0.74320
C15E C 1.0022(4) 0.7234(3) 0.7282(3)
H14E H 1.04000 0.73610 0.76390
C16E C 1.0068(4) 0.6534(2) 0.6882(2)
H15E H 1.04570 0.61860 0.69990
C17E C 0.8926(2) 0.6864(2) 0.6153(2)
C18E C 0.9549(3) 0.6360(2) 0.6327(2)
H16E H 0.96010 0.59030 0.60540
N1E N 0.74303(17) 0.62391(16) 0.30090(17)
N2E N 0.80139(16) 0.60481(16) 0.43675(16)
C1K C 0.7299(2) 0.7863(2) 0.3657(2)
H1K H 0.69270 0.75650 0.34140
C2K C 0.7106(3) 0.8597(2) 0.3904(3)
H2K H 0.66120 0.87840 0.38150
C3K C 0.7624(3) 0.9044(3) 0.4270(2)
H3K H 0.74920 0.95320 0.44440
C4K C 0.8359(3) 0.8753(3) 0.4379(2)
H4K H 0.87330 0.90500 0.46200
C5K C 0.8531(2) 0.8018(2) 0.4127(2)
C6K C 0.9276(2) 0.7662(2) 0.4219(2)
H5K H 0.96760 0.79190 0.44650
C7K C 1.01244(19) 0.66070(18) 0.40414(20)
H6K H 1.00270 0.60610 0.41470
C8K C 1.0600(2) 0.6922(2) 0.4712(3)
H7K H 1.07660 0.74360 0.45940
H8K H 1.10420 0.66000 0.47910
H9K H 1.02910 0.69280 0.51700
C9K C 1.05988(19) 0.66478(18) 0.33050(19)
C10K C 1.0548(2) 0.7281(2) 0.2830(2)
H10K H 1.02090 0.76740 0.29590
C11K C 1.0989(3) 0.7351(3) 0.2165(3)
H11K H 1.09480 0.77900 0.18610
C12K C 1.1479(3) 0.6775(3) 0.1962(3)
H12K H 1.17460 0.68070 0.14990
C13K C 1.1589(2) 0.6127(3) 0.2446(2)
C14K C 1.2152(3) 0.5572(3) 0.2267(3)
H13K H 1.24320 0.56090 0.18130
C15K C 1.2282(4) 0.4978(3) 0.2766(3)
H14K H 1.26390 0.46000 0.26390
C16K C 1.1882(4) 0.4932(2) 0.3466(2)
H15K H 1.19990 0.45430 0.38140
C17K C 1.1153(2) 0.6074(2) 0.3136(2)
C18K C 1.1327(3) 0.5451(2) 0.3640(2)
H16K H 1.10540 0.53990 0.40970
N1K N 0.80090(17) 0.75697(16) 0.37609(17)
N2K N 0.93675(16) 0.69861(16) 0.39519(16)
H17F H 0.97600 0.08570 0.58970
H17I H 0.91030 0.02400 0.58570
O1G O 1.0111(4) 0.4754(3) 0.0959(2)
O1J O 0.9041(4) 0.5111(3) 0.0246(2)
O3E O 0.0876(4) 0.4743(4) 0.6331(6)
O3K O 0.1331(4) 0.4124(4) 0.5257(6)
#END

data_CSD_CIF_XEWQIA
_audit_creation_date 2007-05-09
_audit_creation_method CSD-ConQuest-V1
_database_code_CSD XEWQIA
_database_code_depnum_ccdc_archive 'CCDC 639590'
_chemical_formula_sum 'C10 H21 Cl1 Cu1 N3 O5'
_chemical_formula_moiety
;
C10 H21 Cu1 N3 O1 1+,Cl1 O4 1-
;
_journal_coden_Cambridge 9
_journal_volume 46
_journal_year 2007
_journal_page_first 541
_journal_name_full 'Inorg.Chem. '
loop_
_publ_author_name
"M.Kujime"
"T.Kurahashi"
"M.Tomura"
"H.Fujii"
_chemical_name_systematic
;
Carbonyl-(1,4,7-trimethyl-1,4,7-triazacyclononane)-copper(i) perchlorate
;
_cell_volume   1456.809
_exptl_crystal_colour 'colorless'
_exptl_crystal_density_diffrn 1.652
_exptl_crystal_description 'prism'
_diffrn_ambient_temperature 173
#These two values have been output from a single CSD field.
_refine_ls_R_factor_gt 0.0198
_refine_ls_wR_factor_gt 0.0198
_symmetry_cell_setting cubic
_symmetry_space_group_name_H-M 'P 21 3'
_symmetry_Int_Tables_number 198
loop_
_symmetry_equiv_pos_site_id
_symmetry_equiv_pos_as_xyz
1 x,y,z
2 z,x,y
3 y,z,x
4 1/2+x,1/2-y,-z
5 1/2+z,1/2-x,-y
6 1/2+y,1/2-z,-x
7 -x,1/2+y,1/2-z
8 -z,1/2+x,1/2-y
9 -y,1/2+z,1/2-x
10 1/2-x,-y,1/2+z
11 1/2-z,-x,1/2+y
12 1/2-y,-z,1/2+x
_cell_length_a 11.3362(11)
_cell_length_b 11.3362(11)
_cell_length_c 11.3362(11)
_cell_angle_alpha 90
_cell_angle_beta 90
_cell_angle_gamma 90
_cell_formula_units_Z 4
loop_
_atom_type_symbol
_atom_type_radius_bond
C 0.68
H 0.23
Cl 0.99
Cu 1.48
N 0.68
O 0.68
loop_
_atom_site_label
_atom_site_type_symbol
_atom_site_fract_x
_atom_site_fract_y
_atom_site_fract_z
Cu1 Cu 0.796755(16) 0.203245(16) 0.703245(16)
Cl1 Cl 0.71846(4) 0.21846(4) 0.28154(4)
O1 O 0.94469(13) 0.05531(13) 0.55531(13)
O2 O 0.7500(2) 0.2372(2) 0.40039(15)
O3 O 0.79152(12) 0.29152(12) 0.20848(12)
N1 N 0.77938(12) 0.38678(11) 0.69999(13)
C1 C 0.86734(16) 0.44601(17) 0.62480(17)
H1 H 0.86170 0.41530 0.54420
H2 H 0.94660 0.43090 0.65580
H3 H 0.85220 0.53110 0.62440
C2 C 0.65939(15) 0.40241(15) 0.65029(15)
H4 H 0.66070 0.38320 0.56510
H5 H 0.63530 0.48590 0.65870
C3 C 0.78795(13) 0.43022(14) 0.82402(16)
H6 H 0.70780 0.44550 0.85500
H7 H 0.83230 0.50550 0.82540
C4 C 0.88731(15) 0.11269(15) 0.61269(15)
O2E O 0.7372(2) 0.09961(20) 0.25000(15)
O2G O 0.59961(20) 0.2500(2) 0.26280(15)
N1H N 0.61322(12) 0.19999(11) 0.72062(13)
N1J N 0.80001(12) 0.22062(11) 0.88678(13)
C1J C 0.87520(16) 0.13266(17) 0.94601(17)
C1H C 0.55399(16) 0.12480(17) 0.63266(17)
H1J H 0.95580 0.13830 0.91530
H1H H 0.58470 0.04420 0.63830
H2J H 0.84420 0.05340 0.93090
H2H H 0.56910 0.15580 0.55340
H3J H 0.87560 0.14780 1.03110
H3H H 0.46890 0.12440 0.64780
C2J C 0.84971(15) 0.34061(15) 0.90241(15)
C2H C 0.59759(15) 0.15029(15) 0.84061(15)
H4J H 0.93490 0.33930 0.88320
H4H H 0.61680 0.06510 0.83930
H5J H 0.84130 0.36470 0.98590
H5H H 0.51410 0.15870 0.86470
C3H C 0.56978(13) 0.32402(14) 0.71205(16)
C3J C 0.67598(13) 0.21205(14) 0.93022(16)
H6J H 0.64500 0.29220 0.94550
H6H H 0.55450 0.35500 0.79220
H7J H 0.67460 0.16770 1.00550
H7H H 0.49450 0.32540 0.66770
#END

data_CSD_CIF_XICREH
_audit_creation_date 2007-08-03
_audit_creation_method CSD-ConQuest-V1
_database_code_CSD XICREH
_database_code_depnum_ccdc_archive 'CCDC 635246'
_chemical_formula_sum 'C7 H16 B1 N1'
_chemical_formula_moiety
;
C7 H16 B1 N1
;
_journal_coden_Cambridge 222
_journal_year 2007
_journal_page_first 1687
_journal_name_full 'Dalton Trans. '
loop_
_publ_author_name
"D.A.Wann"
"F.Blockhuys"
"C.Van Alensoy"
"H.E.Robertson"
"H.-J.Himmel"
"C.Y.Tang"
"A.R.Cowley"
"A.J.Downs"
"D.W.H.Rankin"
_chemical_name_systematic
;
1-azabicyclo[2.2.2]octane-N-borane
;
_chemical_name_common
;
Quinuclidine-N-borane
;
_cell_volume    802.257
_exptl_crystal_colour 'colorless'
_exptl_crystal_density_diffrn 1.035
_exptl_crystal_description 'octahedron'
_diffrn_ambient_temperature 150
#These two values have been output from a single CSD field.
_refine_ls_R_factor_gt 0.0333
_refine_ls_wR_factor_gt 0.0333
_symmetry_cell_setting cubic
_symmetry_space_group_name_H-M 'P 21 3'
_symmetry_Int_Tables_number 198
loop_
_symmetry_equiv_pos_site_id
_symmetry_equiv_pos_as_xyz
1 x,y,z
2 y,z,x
3 z,x,y
4 1/2+x,1/2-y,-z
5 1/2+y,1/2-z,-x
6 1/2+z,1/2-x,-y
7 -y,1/2+z,1/2-x
8 -z,1/2+x,1/2-y
9 1/2-z,-x,1/2+y
10 1/2-x,-y,1/2+z
11 1/2-y,-z,1/2+x
12 -x,1/2+y,1/2-z
_cell_length_a 9.2919(4)
_cell_length_b 9.2919(4)
_cell_length_c 9.2919(4)
_cell_angle_alpha 90
_cell_angle_beta 90
_cell_angle_gamma 90
_cell_formula_units_Z 4
loop_
_atom_type_symbol
_atom_type_radius_bond
C 0.68
H 0.23
B 0.83
N 0.68
loop_
_atom_site_label
_atom_site_type_symbol
_atom_site_fract_x
_atom_site_fract_y
_atom_site_fract_z
B1 B 0.5879(2) 0.0879(2) 0.4121(2)
N1 N 0.68782(14) 0.18782(14) 0.31218(14)
C1 C 0.67891(19) 0.34236(19) 0.35833(18)
C2 C 0.7903(2) 0.43414(18) 0.2794(2)
C3 C 0.84827(19) 0.34827(19) 0.15173(19)
H1 H 0.597(3) -0.025(3) 0.362(2)
H2 H 0.69690 0.34850 0.46430
H3 H 0.58050 0.38000 0.33650
H4 H 0.87100 0.45860 0.34620
H5 H 0.74420 0.52480 0.24410
H6 H 0.91040 0.41040 0.08960
C1G C 0.64167(19) 0.17891(19) 0.15764(18)
C1D C 0.84236(19) 0.14167(19) 0.32109(18)
C2G C 0.7206(2) 0.29030(18) 0.06586(20)
C2D C 0.93414(20) 0.22060(18) 0.2097(2)
H1D H 0.475(3) 0.138(3) 0.403(2)
H1G H 0.638(3) 0.097(3) 0.525(2)
H2D H 0.84850 0.03570 0.30310
H2G H 0.53570 0.19690 0.15150
H3D H 0.88000 0.16350 0.41950
H3G H 0.66350 0.08050 0.12000
H4D H 0.95860 0.15380 0.12900
H4G H 0.65380 0.37100 0.04140
H5D H 1.02480 0.25590 0.25580
H5G H 0.75590 0.24420 -0.02480
#END

data_CSD_CIF_XOLVEC
_audit_creation_date 2019-06-05
_audit_creation_method CSD-ConQuest-V1
_database_code_CSD XOLVEC
_database_code_depnum_ccdc_archive 'CCDC 1885853'
_chemical_formula_sum 'C9 H27 Bi2 Br9 S3'
_chemical_formula_moiety
;
3(C3 H9 S1 1+),Bi2 Br9 3-
;
_journal_coden_Cambridge 1078
_journal_year 2019
_journal_name_full 'CSD Communication(Private Communication) '
loop_
_publ_author_name
"Yao-Zu Zhang"
"Dong-Sheng Sun"
"Ji-Xing Gao"
"Xiu-Ni Hua"
"Xiao-Gang Chen"
"Guang-Quan Mei"
"Wei-Qiang Liao"
_chemical_name_systematic
;
tris(trimethylsulfanium) tris(\m-bromo)-hexabromo-di-bismuth
;
_cell_volume   3062.206
_exptl_crystal_colour 'light yellow'
_exptl_crystal_density_diffrn 2.968
_diffrn_ambient_temperature 153
#These two values have been output from a single CSD field.
_refine_ls_R_factor_gt 0.0254
_refine_ls_wR_factor_gt 0.0254
_symmetry_cell_setting cubic
_symmetry_space_group_name_H-M 'P 21 3'
_symmetry_Int_Tables_number 198
loop_
_symmetry_equiv_pos_site_id
_symmetry_equiv_pos_as_xyz
1 x,y,z
2 1/2-x,-y,1/2+z
3 -x,1/2+y,1/2-z
4 1/2+x,1/2-y,-z
5 z,x,y
6 1/2+z,1/2-x,-y
7 1/2-z,-x,1/2+y
8 -z,1/2+x,1/2-y
9 y,z,x
10 -y,1/2+z,1/2-x
11 1/2+y,1/2-z,-x
12 1/2-y,-z,1/2+x
_cell_length_a 14.5215(1)
_cell_length_b 14.5215(1)
_cell_length_c 14.5215(1)
_cell_angle_alpha 90
_cell_angle_beta 90
_cell_angle_gamma 90
_cell_formula_units_Z 4
loop_
_atom_type_symbol
_atom_type_radius_bond
C 0.68
H 0.23
Bi 1.48
Br 1.21
S 1.02
loop_
_atom_site_label
_atom_site_type_symbol
_atom_site_fract_x
_atom_site_fract_y
_atom_site_fract_z
C1 C 0.7494(6) 0.2561(5) 0.1139(6)
H1 H 0.71590 0.22100 0.15870
H2 H 0.78200 0.21510 0.07360
H3 H 0.70720 0.29280 0.07860
S1 S 0.82921(14) 0.32921(14) 0.17079(14)
C2 C 0.9963(6) 0.4611(7) 0.8908(5)
H4 H 1.03790 0.50220 0.86000
H5 H 0.93620 0.46630 0.86380
H6 H 1.01800 0.39900 0.88440
S2 S 0.99038(12) 0.49038(12) 1.00962(12)
C3 C 0.2844(5) 0.1626(4) 0.3074(6)
H7 H 0.26200 0.15210 0.36870
H8 H 0.34610 0.13950 0.30220
H9 H 0.24540 0.13150 0.26410
S3 S 0.28373(12) 0.28373(12) 0.28373(12)
Br1 Br 0.78029(5) -0.03452(5) 0.76329(5)
Bi1 Bi 0.89473(2) -0.10527(2) 0.89473(2)
Bi2 Bi 1.05094(2) 0.05094(2) 1.05094(2)
Br2 Br 1.03649(5) 0.03937(5) 0.84883(4)
Br3 Br 1.04340(5) 0.24273(4) 1.04447(5)
C1G C 0.8861(6) 0.2494(5) 0.2439(6)
H1G H 0.84130 0.21590 0.27900
H2G H 0.92640 0.28200 0.28490
H3G H 0.92140 0.20720 0.20720
C1J C 0.7561(6) 0.3861(5) 0.2506(6)
H1J H 0.72100 0.34130 0.28410
H2J H 0.71510 0.42640 0.21800
H3J H 0.79280 0.42140 0.29280
C2G C 1.1092(6) 0.4963(7) 1.0389(5)
H4G H 1.14000 0.53790 0.99780
H5G H 1.13620 0.43620 1.03370
H6G H 1.11560 0.51800 1.10100
C2J C 0.9611(6) 0.6092(7) 1.0037(5)
H4J H 1.00220 0.64000 0.96210
H5J H 0.96630 0.63620 1.06380
H6J H 0.89900 0.61560 0.98200
C3D C 0.3074(5) 0.2844(4) 0.1626(6)
H7D H 0.36870 0.26200 0.15210
H8D H 0.30220 0.34610 0.13950
H9D H 0.26410 0.24540 0.13150
C3H C 0.1626(5) 0.3074(4) 0.2844(6)
H7H H 0.15210 0.36870 0.26200
H8H H 0.13950 0.30220 0.34610
H9H H 0.13150 0.26410 0.24540
Br1D Br 0.76329(5) -0.21971(5) 0.96548(5)
Br2D Br 0.84883(5) 0.03649(5) 1.03937(4)
Br3D Br 1.04447(5) 0.04340(4) 1.24273(5)
Br1H Br 0.96548(5) -0.23671(5) 0.78029(5)
Br2H Br 1.03937(5) -0.15117(5) 1.03649(4)
Br3H Br 1.24273(5) 0.04447(4) 1.04340(5)
#END

data_CSD_CIF_XUGSOJ
_audit_creation_date 2015-04-07
_audit_creation_method CSD-ConQuest-V1
_database_code_CSD XUGSOJ
_database_code_depnum_ccdc_archive 'CCDC 988684'
_chemical_formula_sum 'C51 H53 Cl2 Fe1 N9 O9'
_chemical_formula_moiety
;
C51 H51 Fe1 N9 2+,2(Cl1 O4 1-),H2 O1
;
_journal_coden_Cambridge 1295
_journal_volume 53
_journal_year 2015
_journal_page_first 55
_journal_name_full 'Inorg.Chem.Commun. '
loop_
_publ_author_name
"Lei Tian"
"Chun-Yan Pang"
"Feng-Li Zhang"
"Long-Fang Qin"
"Zhi-Guo Gu"
"Zaijun Li"
_chemical_name_systematic
;
tris(1-(1-methyl-1H-imidazol-2-yl)-N-(1-(2-naphthyl)ethyl)methanimine)-iron(ii
) bis(perchlorate) monohydrate
;
_cell_volume   5246.889
_exptl_crystal_colour 'red'
_exptl_crystal_density_diffrn 1.345
_exptl_crystal_description 'Block'
_diffrn_ambient_temperature 298
#These two values have been output from a single CSD field.
_refine_ls_R_factor_gt 0.0445
_refine_ls_wR_factor_gt 0.0445
loop_
_citation_database_id_CSD
_citation_special_details
XUGSUP "is a stereoisomer of this entry"
_symmetry_cell_setting cubic
_symmetry_space_group_name_H-M 'P 21 3'
_symmetry_Int_Tables_number 198
loop_
_symmetry_equiv_pos_site_id
_symmetry_equiv_pos_as_xyz
1 x,y,z
2 1/2-x,-y,1/2+z
3 1/2+x,1/2-y,-z
4 -x,1/2+y,1/2-z
5 z,x,y
6 1/2-z,-x,1/2+y
7 1/2+z,1/2-x,-y
8 -z,1/2+x,1/2-y
9 y,z,x
10 1/2+y,1/2-z,-x
11 -y,1/2+z,1/2-x
12 1/2-y,-z,1/2+x
_cell_length_a 17.3767(5)
_cell_length_b 17.3767(5)
_cell_length_c 17.3767(5)
_cell_angle_alpha 90
_cell_angle_beta 90
_cell_angle_gamma 90
_cell_formula_units_Z 4
loop_
_atom_type_symbol
_atom_type_radius_bond
C 0.68
H 0.23
Cl 0.99
Fe 1.52
N 0.68
O 0.68
loop_
_atom_site_label
_atom_site_type_symbol
_atom_site_fract_x
_atom_site_fract_y
_atom_site_fract_z
Fe1 Fe 0.58566(2) 0.41434(2) 0.91434(2)
N1 N 0.66788(14) 0.33509(15) 0.97450(15)
N2 N 0.52302(16) 0.37727(17) 1.01303(17)
N3 N 0.52119(16) 0.31104(18) 1.12057(17)
C1 C 0.64104(18) 0.30927(19) 1.03840(18)
H1 H 0.67000 0.27750 1.07020
C2 C 0.56336(18) 0.33217(19) 1.05839(18)
C3 C 0.4518(2) 0.3456(3) 1.1133(2)
H2 H 0.41090 0.34180 1.14760
C4 C 0.4529(2) 0.3863(2) 1.0476(2)
H3 H 0.41240 0.41580 1.02870
C5 C 0.5439(3) 0.2585(3) 1.1826(2)
H4 H 0.59600 0.24200 1.17470
H5 H 0.51050 0.21450 1.18260
H6 H 0.54010 0.28450 1.23120
C6 C 0.7877(2) 0.2559(2) 1.0019(2)
H7 H 0.75590 0.21180 1.01130
H8 H 0.79890 0.28110 1.04980
H9 H 0.83490 0.23990 0.97810
C7 C 0.74611(16) 0.31101(19) 0.94935(18)
H10 H 0.73970 0.28450 0.90000
C8 C 0.79602(16) 0.38062(18) 0.93388(17)
C9 C 0.80441(19) 0.4381(2) 0.9907(2)
H11 H 0.77720 0.43420 1.03660
C10 C 0.8519(2) 0.4992(2) 0.9789(2)
H12 H 0.85710 0.53640 1.01700
C11 C 0.89334(19) 0.5068(2) 0.9098(3)
C12 C 0.9424(3) 0.5707(2) 0.8936(3)
H13 H 0.94700 0.61000 0.92960
C13 C 0.9821(3) 0.5753(3) 0.8272(4)
H14 H 1.01310 0.61800 0.81780
C14 C 0.9773(3) 0.5172(4) 0.7728(3)
H15 H 1.00530 0.52120 0.72730
C15 C 0.9317(2) 0.4538(3) 0.7851(2)
H16 H 0.92970 0.41480 0.74850
C16 C 0.88810(19) 0.4476(2) 0.85325(19)
C17 C 0.83811(17) 0.38579(19) 0.86794(17)
H17 H 0.83360 0.34700 0.83130
Cl1 Cl 0.26443(10) 0.23557(10) 0.76443(10)
O1 O 0.3145(3) 0.1855(3) 0.8145(3)
O2 O 0.2307(3) 0.2913(2) 0.8141(3)
Cl2 Cl 0.79835(4) 0.20165(4) 0.70165(4)
O3 O 0.7650(3) 0.1933(3) 0.6293(2)
O4 O 0.7521(2) 0.2479(2) 0.7479(2)
O5 O 0.1135(8) 0.3865(8) 0.6135(8)
H18? H 0.12780 0.37770 0.56660
H19? H 0.07750 0.35710 0.62520
N1E N 0.52550(14) 0.33212(15) 0.83509(15)
N2E N 0.48697(16) 0.47698(17) 0.87727(17)
N3E N 0.37943(16) 0.47881(18) 0.81104(17)
C1E C 0.46160(18) 0.35896(19) 0.80927(18)
H1E H 0.42980 0.33000 0.77750
C2E C 0.44161(18) 0.43664(19) 0.83217(18)
C3E C 0.3867(2) 0.5482(3) 0.8456(2)
H2E H 0.35240 0.58910 0.84180
C4E C 0.4524(2) 0.5471(2) 0.8863(2)
H3E H 0.47130 0.58760 0.91580
C5E C 0.3174(3) 0.4561(3) 0.7585(2)
H4E H 0.32530 0.40400 0.74200
H5E H 0.31740 0.48950 0.71450
H6E H 0.26880 0.45990 0.78450
C6E C 0.4981(2) 0.2123(2) 0.7559(2)
H7E H 0.48870 0.24410 0.71180
H8E H 0.45020 0.20110 0.78110
H9E H 0.52190 0.16510 0.73990
C7E C 0.55065(16) 0.25389(19) 0.81101(18)
H10E H 0.60000 0.26030 0.78450
C8E C 0.56612(16) 0.20398(18) 0.88062(17)
C9E C 0.50930(19) 0.19559(20) 0.9381(2)
H11E H 0.46340 0.22280 0.93420
C10E C 0.5211(2) 0.1481(2) 0.9992(2)
H12E H 0.48300 0.14290 1.03640
C11E C 0.59020(19) 0.10666(20) 1.0068(3)
C12E C 0.6064(3) 0.0576(2) 1.0707(3)
H13E H 0.57040 0.05300 1.11000
C13E C 0.6728(3) 0.0179(3) 1.0753(4)
H14E H 0.68220 -0.01310 1.11800
C14E C 0.7272(3) 0.0227(4) 1.0172(3)
H15E H 0.77270 -0.00530 1.02120
C15E C 0.7149(2) 0.0683(3) 0.9538(2)
H16E H 0.75150 0.07030 0.91480
C16E C 0.64675(19) 0.1119(2) 0.94760(19)
C17E C 0.63206(17) 0.16189(19) 0.88579(17)
H17E H 0.66870 0.16640 0.84700
N1J N 0.66491(14) 0.47450(15) 0.83212(15)
N2J N 0.62273(16) 0.51303(17) 0.97698(17)
N3J N 0.68896(16) 0.62057(18) 0.97881(17)
C1J C 0.69073(18) 0.53840(19) 0.85896(18)
H1J H 0.72250 0.57020 0.83000
C2J C 0.66783(18) 0.55839(19) 0.93664(18)
C3J C 0.6544(2) 0.6133(3) 1.0482(2)
H2J H 0.65820 0.64760 1.08910
C4J C 0.6137(2) 0.5476(2) 1.0471(2)
H3J H 0.58420 0.52870 1.08760
C5J C 0.7415(3) 0.6826(3) 0.9561(2)
H4J H 0.75800 0.67470 0.90400
H5J H 0.78550 0.68260 0.98950
H6J H 0.71550 0.73120 0.95990
C6J C 0.7441(2) 0.5019(2) 0.7123(2)
H7J H 0.78820 0.51130 0.74410
H8J H 0.71890 0.54980 0.70110
H9J H 0.76010 0.47810 0.66510
C7J C 0.68899(16) 0.44935(19) 0.75389(18)
H10J H 0.71550 0.40000 0.76030
C8J C 0.61938(16) 0.43388(18) 0.70398(17)
C9J C 0.56190(19) 0.4907(2) 0.69559(20)
H11J H 0.56580 0.53660 0.72280
C10J C 0.5008(2) 0.4789(2) 0.6481(2)
H12J H 0.46360 0.51700 0.64290
C11J C 0.49320(19) 0.4098(2) 0.60666(30)
C12J C 0.4293(3) 0.3936(2) 0.5576(3)
H13J H 0.39000 0.42960 0.55300
C13J C 0.4247(3) 0.3272(3) 0.5179(4)
H14J H 0.38200 0.31780 0.48690
C14J C 0.4828(3) 0.2728(4) 0.5227(3)
H15J H 0.47880 0.22730 0.49470
C15J C 0.5462(2) 0.2851(3) 0.5683(2)
H16J H 0.58520 0.24850 0.57030
C16J C 0.55240(19) 0.35325(20) 0.61190(19)
C17J C 0.61421(17) 0.36794(19) 0.66189(17)
H17J H 0.65300 0.33130 0.66640
O2F O 0.3141(3) 0.2693(2) 0.7087(3)
O2K O 0.2087(3) 0.1859(2) 0.7307(3)
O3E O 0.8707(3) 0.2350(3) 0.6933(2)
O3J O 0.8067(3) 0.1293(3) 0.7350(2)
#END

data_CSD_CIF_XUNHIY
_audit_creation_date 2010-06-02
_audit_creation_method CSD-ConQuest-V1
_database_code_CSD XUNHIY
_database_code_depnum_ccdc_archive 'CCDC 753593'
_chemical_formula_sum 'C38 H32 As2 Cl6 S6'
_chemical_formula_moiety
;
C36 H30 As2 S6,2(C1 H1 Cl3)
;
_journal_coden_Cambridge 179
_journal_volume 49
_journal_year 2010
_journal_page_first 1248
_journal_name_full 'Angew.Chem.,Int.Ed. '
loop_
_publ_author_name
"V.M.Cangelosi"
"L.N.Zakharov"
"D.W.Johnson"
_chemical_name_systematic
;
2,13,15,26,27,38-Hexathia-1,14-diarsaoctacyclo-[12.12.12.2^4,11^.2^17,24^.2^29
,36^.0^5,10^.0^18,23^.0^30,35^]-tetratetraconta-4(44),5,7,9,11(43),17(42),18,2
0,22,24(41),29(40),30,32,34,36(39)-pentadecaene chloroform solvate
;
_cell_volume   4390.481
_exptl_crystal_colour 'colorless'
_exptl_crystal_density_diffrn 1.579
_exptl_crystal_description 'block'
_diffrn_ambient_temperature 173
#These two values have been output from a single CSD field.
_refine_ls_R_factor_gt 0.0355
_refine_ls_wR_factor_gt 0.0355
_symmetry_cell_setting cubic
_symmetry_space_group_name_H-M 'P 21 3'
_symmetry_Int_Tables_number 198
loop_
_symmetry_equiv_pos_site_id
_symmetry_equiv_pos_as_xyz
1 x,y,z
2 1/2-x,-y,1/2+z
3 -x,1/2+y,1/2-z
4 1/2+x,1/2-y,-z
5 z,x,y
6 1/2+z,1/2-x,-y
7 1/2-z,-x,1/2+y
8 -z,1/2+x,1/2-y
9 y,z,x
10 -y,1/2+z,1/2-x
11 1/2+y,1/2-z,-x
12 1/2-y,-z,1/2+x
_cell_length_a 16.3746(3)
_cell_length_b 16.3746(3)
_cell_length_c 16.3746(3)
_cell_angle_alpha 90
_cell_angle_beta 90
_cell_angle_gamma 90
_cell_formula_units_Z 4
loop_
_atom_type_symbol
_atom_type_radius_bond
C 0.68
H 0.23
As 1.21
Cl 0.99
S 1.02
loop_
_atom_site_label
_atom_site_type_symbol
_atom_site_fract_x
_atom_site_fract_y
_atom_site_fract_z
As1 As 0.12924(2) -0.12924(2) 1.37076(2)
As2 As -0.05085(2) 0.05085(2) 1.55085(2)
S1 S 0.21491(6) -0.22329(6) 1.42293(6)
S2 S -0.03739(6) 0.05398(6) 1.68699(6)
C1 C 0.2710(2) -0.1595(3) 1.4969(3)
C2 C 0.2176(2) -0.1059(2) 1.5476(2)
C3 C 0.2132(2) -0.0238(2) 1.5302(2)
C4 C 0.1648(2) 0.0298(2) 1.5786(2)
C5 C 0.1213(2) 0.0017(2) 1.6434(2)
C6 C 0.1220(2) -0.0835(2) 1.6624(2)
C7 C 0.0782(2) -0.1161(3) 1.7287(2)
C8 C 0.0796(3) -0.1975(3) 1.7458(3)
C9 C 0.1251(3) -0.2514(3) 1.6968(3)
C10 C 0.1698(2) -0.2224(2) 1.6331(3)
C11 C 0.17031(19) -0.1374(2) 1.6138(2)
C12 C 0.0746(3) 0.0617(3) 1.6943(3)
H1 H 0.299(3) -0.196(3) 1.523(3)
H2 H 0.304(3) -0.134(3) 1.472(3)
H3 H 0.247(3) 0.001(3) 1.472(3)
H4 H 0.164(2) 0.082(3) 1.567(2)
H5 H 0.053(3) -0.085(3) 1.759(3)
H6 H 0.052(3) -0.219(3) 1.789(3)
H7 H 0.124(3) -0.306(3) 1.702(3)
H8 H 0.197(3) -0.265(3) 1.596(3)
H9 H 0.078(3) 0.047(3) 1.749(3)
H10 H 0.097(4) 0.110(4) 1.673(4)
Cl1 Cl 0.74575(10) 0.88203(8) 0.77737(10)
C13 C 0.7822(2) 0.7822(2) 0.7822(2)
H11 H 0.74700 0.74700 0.74700
Cl2 Cl 0.5276(3) -0.0649(3) 1.4240(2)
C14 C 0.5383(13) 0.0383(13) 1.4617(13)
H12 H 0.57350 0.07350 1.42650
S1F S 0.07707(6) -0.21491(6) 1.27671(6)
S1I S 0.22329(6) -0.07707(6) 1.28509(6)
S2F S -0.18699(6) 0.03739(6) 1.55398(6)
S2I S -0.05398(6) 0.18699(6) 1.53739(6)
C1F C 0.0031(2) -0.2710(3) 1.3405(3)
C1I C 0.1595(2) -0.0031(3) 1.2290(3)
C2F C -0.0476(2) -0.2176(2) 1.3941(2)
C2I C 0.1059(2) 0.0476(2) 1.2824(2)
C3F C -0.0302(2) -0.2132(2) 1.4762(2)
C3I C 0.0238(2) 0.0302(2) 1.2868(2)
C4F C -0.0786(2) -0.1648(2) 1.5298(2)
C4I C -0.0298(2) 0.0786(2) 1.3352(2)
C5F C -0.1434(2) -0.1213(2) 1.5017(2)
C5I C -0.0017(2) 0.1434(2) 1.3787(2)
C6F C -0.1624(2) -0.1220(2) 1.4165(2)
C6I C 0.0835(2) 0.1624(2) 1.3780(2)
C7F C -0.2287(2) -0.0782(3) 1.3839(2)
C7I C 0.1161(2) 0.2287(3) 1.4218(2)
C8F C -0.2458(3) -0.0796(3) 1.3025(3)
C8I C 0.1975(3) 0.2458(3) 1.4204(3)
C9F C -0.1968(3) -0.1251(3) 1.2486(3)
C9I C 0.2514(3) 0.1968(3) 1.3749(3)
C10F C -0.1331(2) -0.1698(2) 1.2776(3)
C10I C 0.2224(2) 0.1331(2) 1.3302(3)
C11F C -0.11380(19) -0.17031(20) 1.3626(2)
C11I C 0.13740(19) 0.1138(2) 1.32969(20)
C12F C -0.1943(3) -0.0746(3) 1.5617(3)
C12I C -0.0617(3) 0.1943(3) 1.4254(3)
H1F H -0.023(3) -0.299(3) 1.304(3)
H1I H 0.196(3) 0.023(3) 1.201(3)
H2F H 0.028(3) -0.304(3) 1.366(3)
H2I H 0.134(3) -0.028(3) 1.196(3)
H3F H 0.028(3) -0.247(3) 1.501(3)
H3I H -0.001(3) -0.028(3) 1.253(3)
H4F H -0.067(2) -0.164(3) 1.582(2)
H4I H -0.082(2) 0.067(3) 1.336(2)
H5F H -0.259(3) -0.053(3) 1.415(3)
H5I H 0.085(3) 0.259(3) 1.447(3)
H6F H -0.289(3) -0.052(3) 1.281(3)
H6I H 0.219(3) 0.289(3) 1.448(3)
H7F H -0.202(3) -0.124(3) 1.194(3)
H7I H 0.306(3) 0.202(3) 1.376(3)
H8F H -0.096(3) -0.197(3) 1.235(3)
H8I H 0.265(3) 0.096(3) 1.303(3)
H9F H -0.249(3) -0.078(3) 1.547(3)
H9I H -0.047(3) 0.249(3) 1.422(3)
H10F H -0.173(4) -0.097(4) 1.610(4)
H10I H -0.110(4) 0.173(4) 1.403(4)
Cl1D Cl 0.77737(10) 0.74575(8) 0.88203(10)
Cl1H Cl 0.88203(10) 0.77737(8) 0.74575(10)
Cl2G Cl 0.5760(3) 0.0276(3) 1.5649(2)
Cl2J Cl 0.4351(3) 0.0760(3) 1.4724(2)
#END

data_CSD_CIF_YAPNIM
_audit_creation_date 1994-02-15
_audit_creation_method CSD-ConQuest-V1
_database_code_CSD YAPNIM
_chemical_formula_sum 'C26 H30 Co1 F12 N8 O3 P2'
_chemical_formula_moiety
;
C24 H27 Co1 N7 O3 2+,2(F6 P1 1-),C2 H3 N1
;
_journal_coden_Cambridge 9
_journal_volume 32
_journal_year 1993
_journal_page_first 1883
_journal_name_full 'Inorg.Chem. '
loop_
_publ_author_name
"Shaohua Gou"
"Xiaozeng You"
"Kaibei Yu"
"Jianping Lu"
_chemical_name_systematic
;
tris(1-(N-Oxido-2-pyridyl)-2-azabut-1-en-4-yl)-amino-cobalt(ii) 
bis(hexafluorophosphate) ethanenitrile solvate
;
_cell_volume   3421.790
_exptl_crystal_colour 'dark red'
_exptl_crystal_density_diffrn 1.65
_diffrn_ambient_temperature ?
_diffrn_special_details
;
The study was carried out at room temperature,in the range 283-303K

;
#These two values have been output from a single CSD field.
_refine_ls_R_factor_gt 0.05
_refine_ls_wR_factor_gt 0.05
_symmetry_cell_setting cubic
_symmetry_space_group_name_H-M 'P 21 3'
_symmetry_Int_Tables_number 198
loop_
_symmetry_equiv_pos_site_id
_symmetry_equiv_pos_as_xyz
1 x,y,z
2 z,x,y
3 y,z,x
4 1/2+x,1/2-y,-z
5 1/2+z,1/2-x,-y
6 1/2+y,1/2-z,-x
7 -x,1/2+y,1/2-z
8 -z,1/2+x,1/2-y
9 -y,1/2+z,1/2-x
10 1/2-x,-y,1/2+z
11 1/2-z,-x,1/2+y
12 1/2-y,-z,1/2+x
_cell_length_a 15.069(2)
_cell_length_b 15.069(2)
_cell_length_c 15.069(2)
_cell_angle_alpha 90
_cell_angle_beta 90
_cell_angle_gamma 90
_cell_formula_units_Z 4
loop_
_atom_type_symbol
_atom_type_radius_bond
C 0.68
H 0.23
Co 1.38
F 0.64
N 0.68
O 0.68
P 1.05
loop_
_atom_site_label
_atom_site_type_symbol
_atom_site_fract_x
_atom_site_fract_y
_atom_site_fract_z
Co1 Co 0.3316(1) 0.3316(1) 0.3316(1)
P1 P 0.0557(1) 0.0557(1) 0.0557(1)
P2 P 0.6008(2) 0.6008(2) 0.6008(2)
F1 F -0.0355(4) 0.0839(4) 0.0125(4)
F2 F 0.0971(5) 0.1461(4) 0.0266(5)
F3 F 0.6054(5) 0.4961(4) 0.5944(5)
F4 F 0.5928(7) 0.7026(4) 0.6021(7)
N1 N 0.2380(4) 0.2380(4) 0.2380(4)
N2 N 0.3123(4) 0.2104(4) 0.4042(4)
N3 N 0.3528(4) 0.3526(4) 0.5322(4)
N4 N -0.1944(24) -0.1944(24) -0.1944(24)
O1 O 0.3068(4) 0.3818(3) 0.4637(3)
C1 C 0.2121(5) 0.1598(5) 0.2919(5)
C2 C 0.2885(6) 0.1323(6) 0.3510(5)
C3 C 0.3292(5) 0.1966(5) 0.4852(5)
C4 C 0.3596(5) 0.2637(5) 0.5495(5)
C5 C 0.3992(6) 0.2374(6) 0.6290(6)
C6 C 0.4354(6) 0.3000(7) 0.6872(5)
C7 C 0.4303(6) 0.3858(6) 0.6634(6)
C8 C 0.3899(6) 0.4122(5) 0.5881(5)
C9 C -0.150(2) -0.150(2) -0.150(2)
C10 C -0.0930(16) -0.0930(16) -0.0930(16)
H1 H 0.1966(44) 0.1065(34) 0.2593(40)
H2 H 0.1591(37) 0.1699(54) 0.3313(44)
H3 H 0.2746(54) 0.0801(39) 0.3840(49)
H4 H 0.3394(34) 0.1223(38) 0.3122(37)
H5 H 0.3327(39) 0.1395(27) 0.5132(34)
H6 H 0.3970(58) 0.1744(30) 0.6359(52)
H7 H 0.4628(53) 0.2790(56) 0.7452(38)
H8 H 0.4499(60) 0.445(4) 0.6840(64)
H9 H 0.367(5) 0.4733(34) 0.5717(55)
N2A N 0.4042(4) 0.3123(4) 0.2104(4)
N2B N 0.2104(4) 0.4042(4) 0.3123(4)
O1A O 0.4637(4) 0.3068(3) 0.3818(3)
O1B O 0.3818(4) 0.4637(3) 0.3068(3)
C1A C 0.2919(5) 0.2121(5) 0.1598(5)
C1B C 0.1598(5) 0.2919(5) 0.2121(5)
C2A C 0.3510(6) 0.2885(6) 0.1323(5)
C3A C 0.4852(5) 0.3292(5) 0.1966(5)
C2B C 0.1323(6) 0.3510(6) 0.2885(5)
C3B C 0.1966(5) 0.4852(5) 0.3292(5)
N3A N 0.5322(4) 0.3528(4) 0.3526(4)
N3B N 0.3526(4) 0.5322(4) 0.3528(4)
H1A H 0.2593(44) 0.1966(34) 0.1065(40)
H2A H 0.3313(37) 0.1591(54) 0.1699(44)
H1B H 0.1065(44) 0.2593(34) 0.1966(40)
H2B H 0.1699(37) 0.3313(54) 0.1591(44)
H3A H 0.3840(54) 0.2746(39) 0.0801(49)
H4A H 0.3122(34) 0.3394(38) 0.1223(37)
C4A C 0.5495(5) 0.3596(5) 0.2637(5)
H5A H 0.5132(39) 0.3327(27) 0.1395(34)
H3B H 0.0801(54) 0.3840(39) 0.2746(49)
H4B H 0.1223(34) 0.3122(38) 0.3394(37)
C4B C 0.2637(5) 0.5495(5) 0.3596(5)
H5B H 0.1395(39) 0.5132(27) 0.3327(34)
C8A C 0.5881(6) 0.3899(5) 0.4122(5)
C8B C 0.4122(6) 0.5881(5) 0.3899(5)
C5A C 0.6290(6) 0.3992(6) 0.2374(6)
C5B C 0.2374(6) 0.6290(6) 0.3992(6)
C7A C 0.6634(6) 0.4303(6) 0.3858(6)
H9A H 0.5717(50) 0.3670(34) 0.4733(55)
C7B C 0.3858(6) 0.6634(6) 0.4303(6)
H9B H 0.4733(50) 0.5717(34) 0.3670(55)
C6A C 0.6872(6) 0.4354(7) 0.3000(5)
H6A H 0.6359(58) 0.397(3) 0.1744(52)
C6B C 0.3000(6) 0.6872(7) 0.4354(5)
H6B H 0.1744(58) 0.6359(30) 0.3970(52)
H8A H 0.684(6) 0.4499(40) 0.4450(64)
H8B H 0.445(6) 0.684(4) 0.4499(64)
H7A H 0.7452(53) 0.4628(56) 0.2790(38)
H7B H 0.2790(53) 0.7452(56) 0.4628(38)
F1A F 0.0125(4) -0.0355(4) 0.0839(4)
F1B F 0.0839(4) 0.0125(4) -0.0355(4)
F2A F 0.0266(5) 0.0971(4) 0.1461(5)
F2B F 0.1461(5) 0.0266(4) 0.0971(5)
F3A F 0.5944(5) 0.6054(4) 0.4961(5)
F3B F 0.4961(5) 0.5944(4) 0.6054(5)
F4A F 0.6021(7) 0.5928(4) 0.7026(7)
F4B F 0.7026(7) 0.6021(4) 0.5928(7)
#END

data_CSD_CIF_YICTUA
_audit_creation_date 2007-07-26
_audit_creation_method CSD-ConQuest-V1
_database_code_CSD YICTUA
_database_code_depnum_ccdc_archive 'CCDC 627162'
_chemical_formula_sum 'C46 H84 Cl4 N6 Ni2 O9'
_chemical_formula_moiety
;
C40 H66 Cl3 N6 Ni2 O6 1+,Cl1 1-,3(C2 H6 O1)
;
_journal_coden_Cambridge 1220
_journal_volume 13
_journal_year 2007
_journal_page_first 3058
_journal_name_full 'Chem.-Eur.J. '
loop_
_publ_author_name
"L.H.Gade"
"G.Marconi"
"C.Dro"
"B.D.Ward"
"M.Poyatos"
"S.Bellemin-Laponnaz"
"H.Wadepohl"
"L.Sorace"
"G.Poneti"
_chemical_name_systematic
;
tris(\m~2~-Chloro)-(1,1,1-tris(4-isopropyloxazolin-2-yl)ethane-N,N',N'')-di-ni
ckel chloride ethanol solvate
;
_cell_volume   5699.847
_exptl_crystal_colour 'green'
_exptl_crystal_density_diffrn 1.31
_exptl_special_details
;
magnetic properties

;
_exptl_crystal_description 'prism'
_diffrn_ambient_temperature 173
#These two values have been output from a single CSD field.
_refine_ls_R_factor_gt 0.0334
_refine_ls_wR_factor_gt 0.0334
_symmetry_cell_setting cubic
_symmetry_space_group_name_H-M 'P 21 3'
_symmetry_Int_Tables_number 198
loop_
_symmetry_equiv_pos_site_id
_symmetry_equiv_pos_as_xyz
1 x,y,z
2 y,z,x
3 z,x,y
4 1/2+x,1/2-y,-z
5 1/2+y,1/2-z,-x
6 1/2+z,1/2-x,-y
7 -y,1/2+z,1/2-x
8 -z,1/2+x,1/2-y
9 1/2-z,-x,1/2+y
10 1/2-x,-y,1/2+z
11 1/2-y,-z,1/2+x
12 -x,1/2+y,1/2-z
_cell_length_a 17.863(5)
_cell_length_b 17.863(5)
_cell_length_c 17.863(5)
_cell_angle_alpha 90
_cell_angle_beta 90
_cell_angle_gamma 90
_cell_formula_units_Z 4
loop_
_atom_type_symbol
_atom_type_radius_bond
C 0.68
H 0.23
Cl 0.99
N 0.68
Ni 1.29
O 0.68
loop_
_atom_site_label
_atom_site_type_symbol
_atom_site_fract_x
_atom_site_fract_y
_atom_site_fract_z
Ni1 Ni 0.01693(2) 0.01693(2) 0.01693(2)
Ni2 Ni -0.08089(2) -0.08089(2) -0.08089(2)
Cl1 Cl -0.00543(4) 0.02678(4) -0.11659(4)
Cl2 Cl 0.45655(6) 0.04345(6) -0.04345(6)
N1 N -0.13456(15) -0.18159(15) -0.05415(15)
N2 N 0.13422(13) 0.02781(14) 0.01615(14)
O1 O -0.19696(15) -0.28461(13) -0.09150(15)
O2 O 0.23734(13) 0.06441(14) 0.07799(15)
O3 O 0.4790(2) -0.12881(19) -0.0654(3)
C1 C -0.23212(19) -0.23212(19) -0.23212(19)
C2 C -0.18254(19) -0.18254(19) -0.18254(19)
C3 C -0.16998(18) -0.21538(19) -0.1049(2)
C4 C -0.1730(2) -0.3023(2) -0.0156(2)
C5 C -0.1322(2) -0.23120(17) 0.0129(2)
C6 C -0.1679(2) -0.1935(2) 0.0806(2)
C7 C -0.1639(3) -0.2466(3) 0.1479(2)
C8 C -0.2469(3) -0.1670(3) 0.0649(3)
C9 C 0.16800(19) 0.16800(19) 0.16800(19)
C10 C 0.11839(18) 0.11839(18) 0.11839(18)
C11 C 0.16317(18) 0.06759(19) 0.06699(18)
C12 C 0.26316(19) 0.0049(2) 0.0277(2)
C13 C 0.19610(17) -0.01113(19) -0.02343(19)
C14 C 0.2035(2) 0.0163(2) -0.10392(19)
C15 C 0.2650(2) -0.0267(3) -0.1445(2)
C16 C 0.2174(3) 0.1009(2) -0.1090(3)
C17 C 0.5550(4) -0.1464(3) -0.0457(4)
C18 C 0.5842(4) -0.2030(3) -0.0962(4)
H1 H 0.30720 0.02230 -0.00230
H2 H 0.27730 -0.04070 0.05690
H3 H 0.58680 -0.10050 -0.04870
H4 H 0.55600 -0.16640 0.00660
H5 H 0.63690 -0.21660 -0.08300
H6 H 0.58270 -0.18260 -0.14830
H7 H 0.55180 -0.24850 -0.09290
H8 H 0.26920 -0.00820 -0.19720
H9 H 0.31360 -0.01860 -0.11800
H10 H 0.25290 -0.08140 -0.14490
H11 H 0.22150 0.11620 -0.16270
H12 H 0.26500 0.11320 -0.08230
H13 H 0.17490 0.12830 -0.08500
H14 H 0.15520 0.00550 -0.13020
H15 H 0.18570 -0.06610 -0.02370
H16 H -0.18720 -0.22330 0.19320
H17 H -0.19100 -0.29390 0.13520
H18 H -0.11010 -0.25820 0.15850
H19 H -0.26860 -0.14240 0.11020
H20 H -0.27860 -0.21090 0.05050
H21 H -0.24550 -0.13040 0.02260
H22 H -0.13720 -0.14850 0.09330
H23 H -0.07900 -0.24390 0.02490
H24 H -0.21730 -0.31310 0.01690
H25 H -0.13870 -0.34650 -0.01550
H26 H 0.19990 0.13370 0.19040
H27 H -0.21220 -0.28220 -0.25170
H28 H 0.47150 -0.07320 -0.06270
Cl1A Cl 0.02678(4) -0.11659(4) -0.00543(4)
Cl1B Cl -0.11659(4) -0.00543(4) 0.02678(4)
N1A N -0.18159(15) -0.05415(15) -0.13456(15)
N1B N -0.05415(15) -0.13456(15) -0.18159(15)
N2A N 0.02781(13) 0.01615(14) 0.13422(14)
N2B N 0.01615(13) 0.13422(14) 0.02781(14)
O1B O -0.09150(15) -0.19696(13) -0.28461(15)
O1A O -0.28461(15) -0.09150(13) -0.19696(15)
O2B O 0.07799(13) 0.23734(14) 0.06441(15)
O2A O 0.06441(13) 0.07799(14) 0.23734(15)
C3A C -0.21538(18) -0.10490(19) -0.16998(20)
C3B C -0.10490(18) -0.16998(19) -0.21538(20)
C4B C -0.0156(2) -0.1730(2) -0.3023(2)
C4A C -0.3023(2) -0.0156(2) -0.1730(2)
C5B C 0.0129(2) -0.13220(17) -0.2312(2)
C5A C -0.2312(2) 0.01290(17) -0.1322(2)
C6B C 0.0806(2) -0.1679(2) -0.1935(2)
C6A C -0.1935(2) 0.0806(2) -0.1679(2)
C7B C 0.1479(3) -0.1639(3) -0.2466(2)
C7A C -0.2466(3) 0.1479(3) -0.1639(2)
C8B C 0.0649(3) -0.2469(3) -0.1670(3)
C8A C -0.1670(3) 0.0649(3) -0.2469(3)
C11A C 0.06759(18) 0.06699(19) 0.16317(18)
C11B C 0.06699(18) 0.16317(19) 0.06759(18)
C12B C 0.02770(19) 0.26316(20) 0.0049(2)
C12A C 0.00490(19) 0.0277(2) 0.26316(20)
C13B C -0.02343(17) 0.19610(19) -0.01113(19)
C13A C -0.01113(17) -0.02343(19) 0.19610(19)
C14B C -0.10392(20) 0.2035(2) 0.01630(19)
C14A C 0.0163(2) -0.10392(20) 0.20350(19)
C15B C -0.1445(2) 0.2650(3) -0.0267(2)
C15A C -0.0267(2) -0.1445(3) 0.2650(2)
C16B C -0.1090(3) 0.2174(2) 0.1009(3)
C16A C 0.1009(3) -0.1090(2) 0.2174(3)
H1B H -0.00230 0.30720 0.02230
H1A H 0.02230 -0.00230 0.30720
H2B H 0.05690 0.27730 -0.04070
H2A H -0.04070 0.05690 0.27730
H8B H -0.19720 0.26920 -0.00820
H8A H -0.00820 -0.19720 0.26920
H9B H -0.11800 0.31360 -0.01860
H9A H -0.01860 -0.11800 0.31360
H10B H -0.14490 0.25290 -0.08140
H10A H -0.08140 -0.14490 0.25290
H11B H -0.16270 0.22150 0.11620
H11A H 0.11620 -0.16270 0.22150
H12B H -0.08230 0.26500 0.11320
H12A H 0.11320 -0.08230 0.26500
H13B H -0.08500 0.17490 0.12830
H13A H 0.12830 -0.08500 0.17490
H14B H -0.13020 0.15520 0.00550
H14A H 0.00550 -0.13020 0.15520
H15B H -0.02370 0.18570 -0.06610
H15A H -0.06610 -0.02370 0.18570
H16B H 0.19320 -0.18720 -0.22330
H16A H -0.22330 0.19320 -0.18720
H17B H 0.13520 -0.19100 -0.29390
H17A H -0.29390 0.13520 -0.19100
H18B H 0.15850 -0.11010 -0.25820
H18A H -0.25820 0.15850 -0.11010
H19B H 0.11020 -0.26860 -0.14240
H19A H -0.14240 0.11020 -0.26860
H20B H 0.05050 -0.27860 -0.21090
H20A H -0.21090 0.05050 -0.27860
H21B H 0.02260 -0.24550 -0.13040
H21A H -0.13040 0.02260 -0.24550
H22B H 0.09330 -0.13720 -0.14850
H22A H -0.14850 0.09330 -0.13720
H23B H 0.02490 -0.07900 -0.24390
H23A H -0.24390 0.02490 -0.07900
H24B H 0.01690 -0.21730 -0.31310
H24A H -0.31310 0.01690 -0.21730
H25B H -0.01550 -0.13870 -0.34650
H25A H -0.34650 -0.01550 -0.13870
H26A H 0.13370 0.19040 0.19990
H26B H 0.19040 0.19990 0.13370
H27A H -0.28220 -0.25170 -0.21220
H27B H -0.25170 -0.21220 -0.28220
#END

data_CSD_CIF_YIWKUL
_audit_creation_date 2008-05-23
_audit_creation_method CSD-ConQuest-V1
_database_code_CSD YIWKUL
_database_code_depnum_ccdc_archive 'CCDC 649992'
_chemical_formula_sum 'C18 H18 Br2 Cu1 N4'
_chemical_formula_moiety
;
C18 H18 Br1 Cu1 N4 1+,Br1 1-
;
_journal_coden_Cambridge 1290
_journal_year 2008
_journal_page_first 563
_journal_name_full 'Eur.J.Inorg.Chem. '
loop_
_publ_author_name
"W.T.Eckenhoff"
"S.T.Garrity"
"T.Pintauer"
_chemical_name_systematic
;
Bromo-(tris(2-pyridylmethyl)amine)-copper(ii) bromide
;
_cell_volume   2016.374
_exptl_crystal_colour 'green'
_exptl_crystal_density_diffrn 1.692
_exptl_crystal_description 'rhomboids'
_exptl_crystal_preparation 'diethyl ether/acetonitrile'
_diffrn_ambient_temperature 150
#These two values have been output from a single CSD field.
_refine_ls_R_factor_gt 0.0271
_refine_ls_wR_factor_gt 0.0271
loop_
_citation_database_id_CSD
_citation_special_details
OLEDOA "is a racemate of this entry"
_symmetry_cell_setting cubic
_symmetry_space_group_name_H-M 'P 21 3'
_symmetry_Int_Tables_number 198
loop_
_symmetry_equiv_pos_site_id
_symmetry_equiv_pos_as_xyz
1 x,y,z
2 1/2-x,-y,1/2+z
3 -x,1/2+y,1/2-z
4 1/2+x,1/2-y,-z
5 z,x,y
6 1/2+z,1/2-x,-y
7 1/2-z,-x,1/2+y
8 -z,1/2+x,1/2-y
9 y,z,x
10 -y,1/2+z,1/2-x
11 1/2+y,1/2-z,-x
12 1/2-y,-z,1/2+x
_cell_length_a 12.6335(3)
_cell_length_b 12.6335(3)
_cell_length_c 12.6335(3)
_cell_angle_alpha 90
_cell_angle_beta 90
_cell_angle_gamma 90
_cell_formula_units_Z 4
loop_
_atom_type_symbol
_atom_type_radius_bond
C 0.68
H 0.23
Br 1.21
Cu 1.52
N 0.68
loop_
_atom_site_label
_atom_site_type_symbol
_atom_site_fract_x
_atom_site_fract_y
_atom_site_fract_z
Br1 Br 0.332883(17) 0.167117(17) 0.832883(17)
Br2 Br -0.044558(17) 0.544558(17) 0.455442(17)
Cu1 Cu 0.06437(2) 0.43563(2) 0.56437(2)
N1 N 0.15761(14) 0.34239(14) 0.65761(14)
C1 C 0.15660(19) 0.23811(19) 0.49528(19)
C2 C 0.22347(19) 0.2754(2) 0.58719(19)
H1 H 0.25030 0.21500 0.62620
H2 H 0.28330 0.31590 0.56120
N2 N 0.08110(15) 0.30685(15) 0.46402(16)
C3 C 0.1731(2) 0.14280(19) 0.4430(2)
H3 H 0.22580 0.09670 0.46570
C4 C 0.0344(2) 0.18837(18) 0.3251(2)
H4 H -0.00790 0.17320 0.26680
C5 C 0.02145(19) 0.28232(19) 0.37993(19)
H5 H -0.03020 0.32980 0.35770
C6 C 0.1109(2) 0.1172(2) 0.3578(2)
H6 H 0.12010 0.05320 0.32270
C1E C -0.00472(19) 0.34340(19) 0.76189(19)
C1K C 0.26189(19) 0.50472(19) 0.65660(19)
C2E C 0.08719(19) 0.27653(20) 0.72460(19)
C2K C 0.22460(19) 0.41281(20) 0.72347(19)
H1K H 0.28500 0.37380 0.75030
H1E H 0.12620 0.24970 0.78500
H2K H 0.18410 0.43880 0.78330
H2E H 0.06120 0.21670 0.68410
N2E N -0.03598(15) 0.41890(15) 0.69315(16)
N2K N 0.19315(15) 0.53598(15) 0.58110(16)
C3K C 0.3572(2) 0.55700(19) 0.6731(2)
C3E C -0.0570(2) 0.32690(19) 0.8572(2)
H3K H 0.40330 0.53430 0.72580
H3E H -0.03430 0.27420 0.90330
C4K C 0.31163(20) 0.67490(18) 0.5344(2)
C4E C -0.1749(2) 0.46560(18) 0.81163(20)
H4K H 0.32680 0.73320 0.49210
H4E H -0.23320 0.50790 0.82680
C5K C 0.21768(19) 0.62007(19) 0.52145(19)
C5E C -0.12007(19) 0.47855(19) 0.71768(19)
H5K H 0.17020 0.64230 0.46980
H5E H -0.14230 0.53020 0.67020
C6K C 0.3828(2) 0.6422(2) 0.6109(2)
C6E C -0.1422(2) 0.3891(2) 0.8828(2)
H6K H 0.44680 0.67730 0.62010
H6E H -0.17730 0.37990 0.94680
#END

data_CSD_CIF_YOQGAO
_audit_creation_date 2014-08-27
_audit_creation_method CSD-ConQuest-V1
_database_code_CSD YOQGAO
_database_code_depnum_ccdc_archive 'CCDC 1006857'
_chemical_formula_sum 'C6 H21 N5 Ni1 O9'
_chemical_formula_moiety
;
C6 H21 N3 Ni1 O3 2+,2(N1 O3 1-)
;
_journal_coden_Cambridge 1220
_journal_year 2014
_journal_name_full 'Chem.-Eur.J. '
loop_
_publ_author_name
"V.Amendola"
"M.Boiocchi"
"L.Fabbrizzi"
"N.Fusco"
"E.Valeri"
_chemical_name_systematic
;
Triaqua-(1,4,7-triazacyclononane)-nickel(ii) dinitrate
;
_cell_volume   1513.824
_exptl_crystal_colour 'blue'
_exptl_crystal_density_diffrn 1.606
_exptl_special_details
;
Absolute configuration

;
_exptl_crystal_description 'prism'
_exptl_crystal_preparation 'ethanol'
_diffrn_ambient_temperature 293
#These two values have been output from a single CSD field.
_refine_ls_R_factor_gt 0.0406
_refine_ls_wR_factor_gt 0.0406
_symmetry_cell_setting cubic
_symmetry_space_group_name_H-M 'P 21 3'
_symmetry_Int_Tables_number 198
loop_
_symmetry_equiv_pos_site_id
_symmetry_equiv_pos_as_xyz
1 x,y,z
2 1/2-x,-y,1/2+z
3 1/2+x,1/2-y,-z
4 -x,1/2+y,1/2-z
5 z,x,y
6 y,z,x
7 1/2-z,-x,1/2+y
8 -y,1/2+z,1/2-x
9 1/2+z,1/2-x,-y
10 1/2-y,-z,1/2+x
11 -z,1/2+x,1/2-y
12 1/2+y,1/2-z,-x
_cell_length_a 11.4822(7)
_cell_length_b 11.4822(7)
_cell_length_c 11.4822(7)
_cell_angle_alpha 90
_cell_angle_beta 90
_cell_angle_gamma 90
_cell_formula_units_Z 4
loop_
_atom_type_symbol
_atom_type_radius_bond
C 0.68
H 0.23
N 0.68
Ni 1.24
O 0.68
loop_
_atom_site_label
_atom_site_type_symbol
_atom_site_fract_x
_atom_site_fract_y
_atom_site_fract_z
Ni1 Ni 0.69816(3) 0.69816(3) 0.69816(3)
C1 C 0.8938(3) 0.6457(4) 0.8400(4)
H1 H 0.90450 0.57170 0.80070
H2 H 0.93550 0.64270 0.91340
C2 C 0.7436(4) 0.7650(4) 0.9421(3)
H3 H 0.81330 0.81200 0.95130
H4 H 0.72170 0.73540 1.01810
N1 N 0.7685(3) 0.6655(3) 0.8620(3)
H5 H 0.745(3) 0.594(2) 0.897(3)
O1 O 0.7349(2) 0.5351(2) 0.6262(2)
H6 H 0.8123(16) 0.521(4) 0.601(4)
H7 H 0.698(4) 0.471(3) 0.665(3)
N2 N 0.4953(2) 0.5047(2) 1.0047(2)
O2 O 0.5607(5) 0.5849(5) 1.0027(5)
N3 N 0.6844(3) 0.3156(3) 0.8156(3)
O3 O 0.6276(3) 0.3463(3) 0.7298(3)
C1D C 0.8400(3) 0.8938(4) 0.6457(4)
H1D H 0.80070 0.90450 0.57170
H2D H 0.91340 0.93550 0.64270
C2D C 0.9421(4) 0.7436(4) 0.7650(3)
H3D H 0.95130 0.81330 0.81200
H4D H 1.01810 0.72170 0.73540
N1D N 0.8620(3) 0.7685(3) 0.6655(3)
H5D H 0.897(3) 0.745(2) 0.594(3)
C1E C 0.6457(3) 0.8400(4) 0.8938(4)
H1E H 0.57170 0.80070 0.90450
H2E H 0.64270 0.91340 0.93550
C2E C 0.7650(4) 0.9421(4) 0.7436(3)
H3E H 0.81200 0.95130 0.81330
H4E H 0.73540 1.01810 0.72170
N1E N 0.6655(3) 0.8620(3) 0.7685(3)
H5E H 0.594(3) 0.897(2) 0.745(3)
O1D O 0.6262(2) 0.7349(2) 0.5351(2)
H6D H 0.6010(16) 0.8123(40) 0.521(4)
H7D H 0.665(4) 0.698(3) 0.471(3)
O1E O 0.5351(2) 0.6262(2) 0.7349(2)
H6E H 0.5210(16) 0.601(4) 0.8123(40)
H7E H 0.471(4) 0.665(3) 0.698(3)
O2F O 0.4973(5) 0.4393(5) 1.0849(5)
O2G O 0.4151(5) 0.5027(5) 0.9393(5)
O3F O 0.7702(3) 0.3724(3) 0.8463(3)
O3G O 0.6537(3) 0.2298(3) 0.8724(3)
#END

data_CSD_CIF_YOSRAZ
_audit_creation_date 1996-01-08
_audit_creation_method CSD-ConQuest-V1
_database_code_CSD YOSRAZ
_chemical_formula_sum 'C6 H8 O6'
_chemical_formula_moiety
;
C6 H8 O6
;
_journal_coden_Cambridge 156
_journal_volume 265
_journal_year 1994
_journal_page_first 197
_journal_name_full 'Carbohydr.Res. '
loop_
_publ_author_name
"M.A.Shalaby"
"F.R.Fronczek"
"D.Vargas"
"E.S.Younathan"
_chemical_name_systematic
;
\b-D-Mannurono-\g-lactone
;
_chemical_melting_point 470.15
_cell_volume   2105.519
_exptl_crystal_colour 'colorless'
_exptl_special_details
;
Melting point range 470.15-472.15K

;
_diffrn_ambient_temperature ?
_diffrn_special_details
;
The study was carried out at room temperature,in the range 283-303K

;
#These two values have been output from a single CSD field.
_refine_ls_R_factor_gt 0.03
_refine_ls_wR_factor_gt 0.03
_symmetry_cell_setting cubic
_symmetry_space_group_name_H-M 'P 21 3'
_symmetry_Int_Tables_number 198
loop_
_symmetry_equiv_pos_site_id
_symmetry_equiv_pos_as_xyz
1 x,y,z
2 1/2-x,-y,1/2+z
3 1/2+x,1/2-y,-z
4 z,x,y
5 -x,1/2+y,1/2-z
6 1/2-z,-x,1/2+y
7 1/2+z,1/2-x,-y
8 -z,1/2+x,1/2-y
9 y,z,x
10 1/2+y,1/2-z,-x
11 -y,1/2+z,1/2-x
12 1/2-y,-z,1/2+x
_cell_length_a 12.8170(7)
_cell_length_b 12.8170(7)
_cell_length_c 12.8170(7)
_cell_angle_alpha 90
_cell_angle_beta 90
_cell_angle_gamma 90
_cell_formula_units_Z 12
loop_
_atom_type_symbol
_atom_type_radius_bond
C 0.68
H 0.23
O 0.68
loop_
_atom_site_label
_atom_site_type_symbol
_atom_site_fract_x
_atom_site_fract_y
_atom_site_fract_z
O1 O 0.2812(1) 0.0149(1) 0.5290(1)
O2 O 0.45991(8) 0.1281(1) 0.5060(1)
O3 O 0.29683(9) 0.18183(9) 0.38155(9)
O4 O 0.2026(1) 0.1544(1) 0.6144(1)
O5 O 0.04719(9) 0.1163(1) 0.4752(1)
O6 O 0.1841(1) 0.0846(1) 0.2935(1)
C1 C 0.2957(2) 0.0950(2) 0.6015(1)
C2 C 0.3721(1) 0.1724(1) 0.5547(1)
C3 C 0.3026(1) 0.2352(1) 0.4815(1)
C4 C 0.1943(1) 0.2276(1) 0.5308(2)
C5 C 0.1248(1) 0.1864(1) 0.4436(1)
C6 C 0.2011(1) 0.1421(1) 0.3647(1)
H1 H 0.256(2) -0.037(2) 0.555(2)
H2 H 0.436(1) 0.080(1) 0.465(2)
H3 H 0.078(1) 0.075(1) 0.525(2)
H4 H 0.318(1) 0.076(1) 0.674(1)
H5 H 0.394(1) 0.212(1) 0.612(1)
H6 H 0.327(1) 0.304(1) 0.472(1)
H7 H 0.170(1) 0.295(1) 0.557(1)
H8 H 0.093(1) 0.243(2) 0.409(2)
#END

data_CSD_CIF_ZEZYEI
_audit_creation_date 1996-06-30
_audit_creation_method CSD-ConQuest-V1
_database_code_CSD ZEZYEI
_database_code_depnum_ccdc_archive 'CCDC 1311929'
_database_code_depnum_ccdc_fiz 'CSD 59097'
_chemical_formula_sum 'C15 H24 Be1 Cl2 N6'
_chemical_formula_moiety
;
C15 H24 Be1 Cl1 N6 1+,Cl1 1-
;
_journal_coden_Cambridge 36
_journal_volume 501
_journal_year 1995
_journal_page_first C1
_journal_name_full 'J.Organomet.Chem. '
loop_
_publ_author_name
"W.A.Herrmann"
"O.Runte"
"G.Artus"
_chemical_name_systematic
;
Chloro-tris(1,3-dimethylimidazolin-2-ylidene)-beryllium chloride
;
_cell_volume   3875.072
_exptl_crystal_colour 'colorless'
_exptl_crystal_density_diffrn 1.26
_diffrn_ambient_temperature 163.15
#These two values have been output from a single CSD field.
_refine_ls_R_factor_gt 0.032
_refine_ls_wR_factor_gt 0.032
_symmetry_cell_setting cubic
_symmetry_space_group_name_H-M 'P 21 3'
_symmetry_Int_Tables_number 198
loop_
_symmetry_equiv_pos_site_id
_symmetry_equiv_pos_as_xyz
1 x,y,z
2 1/2-x,-y,1/2+z
3 1/2+x,1/2-y,-z
4 z,x,y
5 -x,1/2+y,1/2-z
6 1/2-z,-x,1/2+y
7 1/2+z,1/2-x,-y
8 -z,1/2+x,1/2-y
9 y,z,x
10 1/2+y,1/2-z,-x
11 -y,1/2+z,1/2-x
12 1/2-y,-z,1/2+x
_cell_length_a 15.707(1)
_cell_length_b 15.707(1)
_cell_length_c 15.707(1)
_cell_angle_alpha 90
_cell_angle_beta 90
_cell_angle_gamma 90
_cell_formula_units_Z 8
loop_
_atom_type_symbol
_atom_type_radius_bond
C 0.87
H 0.23
Be 0.46
Cl 1.14
N 0.68
loop_
_atom_site_label
_atom_site_type_symbol
_atom_site_fract_x
_atom_site_fract_y
_atom_site_fract_z
Cl1 Cl 0.09427(4) 0.59426(4) -0.09427(4)
N1 N -0.1287(1) 0.4385(1) -0.0964(2)
N2 N -0.1258(1) 0.5730(1) -0.1126(1)
C1 C -0.0838(2) 0.5087(2) -0.0735(2)
C2 C -0.1146(2) 0.3519(2) -0.0645(2)
C3 C -0.1957(2) 0.4589(2) -0.1497(2)
C4 C -0.1937(2) 0.5435(2) -0.1599(2)
C5 C -0.1084(2) 0.6638(2) -0.1004(2)
Be1 Be 0.0174(2) 0.5174(2) -0.0174(2)
H1 H -0.150(3) 0.316(2) -0.095(2)
H2 H -0.059(3) 0.336(3) -0.074(3)
H3 H -0.131(3) 0.350(3) -0.004(3)
H4 H -0.231(2) 0.417(2) -0.173(2)
H5 H -0.232(2) 0.579(2) -0.191(2)
H6 H -0.136(2) 0.694(2) -0.146(2)
H7 H -0.132(3) 0.681(3) -0.049(3)
H8 H -0.050(3) 0.678(3) -0.101(3)
Cl2 Cl 0.69789(6) -0.30211(6) -0.30211(6)
Cl3 Cl 0.26771(4) -0.23229(4) -0.26771(4)
Cl4 Cl 0.11443(4) 0.38558(4) 0.61442(4)
N3 N 0.0537(2) 0.5974(2) 0.6544(2)
N4 N -0.0759(1) 0.5837(1) 0.6161(1)
C6 C 0.0034(2) 0.5502(2) 0.6032(2)
C7 C 0.1456(2) 0.5880(3) 0.6618(3)
C8 C 0.0075(2) 0.6577(2) 0.6979(2)
C9 C -0.0729(2) 0.6495(2) 0.6745(2)
C10 C -0.1536(2) 0.5581(3) 0.5721(3)
Be2 Be 0.0381(2) 0.4619(2) 0.5381(2)
H9 H 0.173(3) 0.641(3) 0.685(3)
H10 H 0.172(2) 0.582(2) 0.612(2)
H11 H 0.157(3) 0.542(3) 0.692(3)
H12 H 0.031(2) 0.695(2) 0.737(2)
H13 H -0.128(2) 0.678(2) 0.687(2)
H14 H -0.196(2) 0.588(2) 0.594(2)
H15 H -0.151(4) 0.565(3) 0.514(3)
H16 H -0.168(2) 0.498(3) 0.580(3)
C1G C 0.0735(2) 0.4162(2) -0.0087(2)
N1G N 0.0964(1) 0.3713(1) 0.0615(2)
C2G C 0.0645(2) 0.3854(2) 0.1481(2)
H1G H 0.095(3) 0.350(2) 0.184(2)
H2G H 0.074(3) 0.441(3) 0.164(3)
H3G H 0.004(3) 0.369(3) 0.150(3)
C3G C 0.1497(2) 0.3043(2) 0.0411(2)
C4G C 0.1599(2) 0.3063(2) -0.0435(2)
N2G N 0.1126(1) 0.3742(1) -0.0730(1)
C5G C 0.1004(2) 0.3916(2) -0.1638(2)
H6G H 0.146(2) 0.364(2) -0.194(2)
H7G H 0.049(3) 0.368(3) -0.181(3)
H8G H 0.101(3) 0.450(3) -0.178(3)
H5G H 0.191(2) 0.268(2) -0.079(2)
H4G H 0.173(2) 0.269(2) 0.083(2)
C1I C 0.0087(2) 0.5735(2) 0.0838(2)
N1I N -0.0615(1) 0.5964(1) 0.1287(2)
C2I C -0.1481(2) 0.5645(2) 0.1146(2)
H1I H -0.184(3) 0.595(2) 0.150(2)
H2I H -0.164(3) 0.574(3) 0.059(3)
H3I H -0.150(3) 0.504(3) 0.131(3)
C3I C -0.0411(2) 0.6497(2) 0.1957(2)
C4I C 0.0435(2) 0.6599(2) 0.1937(2)
N2I N 0.0730(1) 0.6126(1) 0.1258(1)
C5I C 0.1638(2) 0.6004(2) 0.1084(2)
H6I H 0.194(2) 0.646(2) 0.136(2)
H7I H 0.181(3) 0.549(3) 0.132(3)
H8I H 0.178(3) 0.601(3) 0.050(3)
H5I H 0.079(2) 0.691(2) 0.232(2)
H4I H -0.083(2) 0.673(2) 0.231(2)
C6F C 0.1032(2) 0.4966(2) 0.4498(2)
N3F N 0.1544(2) 0.4463(2) 0.4026(2)
C7F C 0.1618(2) 0.3544(3) 0.4120(3)
H9F H 0.185(3) 0.327(3) 0.359(3)
H10F H 0.112(2) 0.328(2) 0.418(2)
H11F H 0.192(3) 0.343(3) 0.458(3)
C8F C 0.1979(2) 0.4925(2) 0.3423(2)
C9F C 0.1745(2) 0.5729(2) 0.3505(2)
N4F N 0.1161(1) 0.5759(1) 0.4163(1)
C10F C 0.0721(2) 0.6536(3) 0.4419(3)
H14F H 0.094(2) 0.696(2) 0.412(2)
H15F H 0.014(4) 0.651(3) 0.435(3)
H16F H 0.080(2) 0.668(3) 0.502(3)
H13F H 0.187(2) 0.628(2) 0.322(2)
H12F H 0.237(2) 0.469(2) 0.305(2)
C6K C -0.0502(2) 0.3968(2) 0.5034(2)
N3K N -0.0974(2) 0.3456(2) 0.5537(2)
C7K C -0.0880(2) 0.3382(3) 0.6456(3)
H9K H -0.141(3) 0.315(3) 0.673(3)
H10K H -0.082(2) 0.388(2) 0.672(2)
H11K H -0.042(3) 0.308(3) 0.657(3)
C8K C -0.1577(2) 0.3021(2) 0.5075(2)
C9K C -0.1495(2) 0.3255(2) 0.4271(2)
N4K N -0.0837(1) 0.3839(1) 0.4241(1)
C10K C -0.0581(2) 0.4279(3) 0.3464(3)
H14K H -0.088(2) 0.406(2) 0.304(2)
H15K H -0.065(4) 0.486(3) 0.349(3)
H16K H 0.002(2) 0.420(3) 0.332(3)
H13K H -0.178(2) 0.313(2) 0.372(2)
H12K H -0.195(2) 0.263(2) 0.531(2)
#END

data_CSD_CIF_ZIDYET
_audit_creation_date 2018-08-20
_audit_creation_method CSD-ConQuest-V1
_database_code_CSD ZIDYET
_database_code_depnum_ccdc_archive 'CCDC 1862850'
_chemical_formula_sum 'C6 H17 Cl3 N2 O13'
_chemical_formula_moiety
;
C6 H14 N2 2+,3(Cl1 O4 1-),H3 O1 1+
;
_journal_coden_Cambridge 1078
_journal_year 2018
_journal_name_full 'CSD Communication(Private Communication) '
loop_
_publ_author_name
"M.Szafranski"
_chemical_name_systematic
;
1,4-diazabicyclo[2.2.2]octane-1,4-diium oxidanium tris(perchlorate)
;
_cell_volume   2915.566
_exptl_crystal_colour 'colorless'
_exptl_crystal_density_diffrn 1.966
_exptl_crystal_description 'prism'
_diffrn_ambient_temperature 200
#These two values have been output from a single CSD field.
_refine_ls_R_factor_gt 0.028
_refine_ls_wR_factor_gt 0.028
_symmetry_cell_setting cubic
_symmetry_space_group_name_H-M 'P 21 3'
_symmetry_Int_Tables_number 198
loop_
_symmetry_equiv_pos_site_id
_symmetry_equiv_pos_as_xyz
1 x,y,z
2 1/2-x,-y,1/2+z
3 1/2+x,1/2-y,-z
4 -x,1/2+y,1/2-z
5 z,x,y
6 y,z,x
7 1/2-z,-x,1/2+y
8 -y,1/2+z,1/2-x
9 1/2+z,1/2-x,-y
10 1/2-y,-z,1/2+x
11 -z,1/2+x,1/2-y
12 1/2+y,1/2-z,-x
_cell_length_a 14.28590(13)
_cell_length_b 14.28590(13)
_cell_length_c 14.28590(13)
_cell_angle_alpha 90
_cell_angle_beta 90
_cell_angle_gamma 90
_cell_formula_units_Z 8
loop_
_atom_type_symbol
_atom_type_radius_bond
C 0.68
H 0.23
Cl 0.99
N 0.68
O 0.68
loop_
_atom_site_label
_atom_site_type_symbol
_atom_site_fract_x
_atom_site_fract_y
_atom_site_fract_z
O1 O 0.00242(15) 0.99758(15) 0.49758(15)
H1 H 0.020(2) 1.0445(18) 0.489(2)
O2 O -0.00250(15) 0.99750(15) -0.00250(15)
H2 H -0.025(2) 0.995(3) 0.047(2)
Cl1 Cl 0.00067(4) 1.01595(5) 0.74527(4)
O3 O 0.08183(14) 1.02424(16) 0.80333(13)
O4 O -0.07844(13) 0.98651(15) 0.79938(14)
O5 O -0.01888(15) 1.10406(13) 0.70026(14)
O6 O 0.01881(14) 0.94578(13) 0.67341(12)
Cl2 Cl 0.00285(4) 0.98580(5) 0.24245(4)
O7 O -0.07039(14) 0.97668(16) 0.17202(14)
O8 O 0.08755(13) 1.01347(16) 0.19538(14)
O9 O 0.01681(16) 0.89714(14) 0.28725(14)
O10 O -0.02368(15) 1.05539(14) 0.30848(13)
C1 C 0.21873(19) 0.8583(2) 0.7176(2)
H3 H 0.19094 0.88459 0.66150
H4 H 0.23263 0.90910 0.76046
C2 C 0.1511(2) 0.7894(2) 0.7631(2)
H5 H 0.12067 0.81843 0.81643
H6 H 0.10334 0.77079 0.71864
N1 N 0.30663(18) 0.80663(18) 0.69337(18)
H7 H 0.344(2) 0.844(2) 0.656(2)
N2 N 0.20582(17) 0.70582(17) 0.79418(17)
H8 H 0.170(2) 0.670(2) 0.830(2)
C3 C -0.2234(2) 1.1376(2) 0.2791(2)
H9 H -0.24087 1.08895 0.23506
H10 H -0.19490 1.10816 0.33328
C4 C -0.1544(2) 1.2053(2) 0.2336(2)
H11 H -0.10445 1.22045 0.27698
H12 H -0.12706 1.17711 0.17824
N3 N -0.20745(17) 1.29255(17) 0.20745(17)
H13 H -0.168(3) 1.332(3) 0.168(3)
N4 N -0.30824(17) 1.19176(17) 0.30824(17)
H14 H -0.343(2) 1.157(2) 0.343(2)
H1F H 0.011(2) 0.9800(18) 0.5445(20)
H1G H -0.0445(20) 0.9890(18) 0.480(2)
H2D H 0.047(2) 0.975(3) -0.005(2)
H2E H -0.005(2) 1.047(3) -0.025(2)
C1J C 0.28240(19) 0.71873(20) 0.6417(2)
H3J H 0.33850 0.69094 0.61541
H4J H 0.23954 0.73263 0.59090
C2J C 0.2369(2) 0.6511(2) 0.7106(2)
H5J H 0.18357 0.62067 0.68157
H6J H 0.28136 0.60335 0.72921
C1K C 0.35830(19) 0.7824(2) 0.78127(20)
H3K H 0.38459 0.83850 0.80906
H4K H 0.40910 0.73954 0.76737
C2K C 0.2894(2) 0.7369(2) 0.8489(2)
H5K H 0.31843 0.68357 0.87933
H6K H 0.27079 0.78136 0.89665
C3J C -0.2791(2) 1.2766(2) 0.3624(2)
H9J H -0.23506 1.25913 0.41105
H10J H -0.33328 1.30510 0.39184
C4J C -0.2336(2) 1.3456(2) 0.2947(2)
H11J H -0.27698 1.39555 0.27955
H12J H -0.17824 1.37294 0.32289
C3K C -0.3624(2) 1.2209(2) 0.2234(2)
H9K H -0.41105 1.26494 0.24087
H10K H -0.39184 1.16672 0.19490
C4K C -0.2947(2) 1.2664(2) 0.1544(2)
H11K H -0.27955 1.22302 0.10445
H12K H -0.32289 1.32176 0.12706
#END

data_CSD_CIF_ZUQGUP
_audit_creation_date 2015-09-03
_audit_creation_method CSD-ConQuest-V1
_database_code_CSD ZUQGUP
_database_code_depnum_ccdc_archive 'CCDC 1422120'
_chemical_formula_sum 'C30 H39 N4 O3 P1'
_chemical_formula_moiety
;
C30 H39 N4 O3 P1
;
_journal_coden_Cambridge 35
_journal_volume 75
_journal_year 2010
_journal_page_first 5308
_journal_name_full 'J.Org.Chem. '
loop_
_publ_author_name
"S.M.Raders"
"J.G.Verkade"
_chemical_name_systematic
;
2,8,9-tris(2-Methoxybenzyl)-2,5,8,9-tetraaza-1-phosphabicyclo[3.3.3]undecane
;
_cell_volume   5941.248
_exptl_crystal_colour 'colorless'
_exptl_crystal_density_diffrn 1.195
_exptl_crystal_description 'block'
_diffrn_ambient_temperature 173
#These two values have been output from a single CSD field.
_refine_ls_R_factor_gt 0.0428
_refine_ls_wR_factor_gt 0.0428
_symmetry_cell_setting cubic
_symmetry_space_group_name_H-M 'P 21 3'
_symmetry_Int_Tables_number 198
loop_
_symmetry_equiv_pos_site_id
_symmetry_equiv_pos_as_xyz
1 x,y,z
2 1/2-x,-y,1/2+z
3 -x,1/2+y,1/2-z
4 1/2+x,1/2-y,-z
5 z,x,y
6 1/2+z,1/2-x,-y
7 1/2-z,-x,1/2+y
8 -z,1/2+x,1/2-y
9 y,z,x
10 -y,1/2+z,1/2-x
11 1/2+y,1/2-z,-x
12 1/2-y,-z,1/2+x
_cell_length_a 18.1117(11)
_cell_length_b 18.1117(11)
_cell_length_c 18.1117(11)
_cell_angle_alpha 90
_cell_angle_beta 90
_cell_angle_gamma 90
_cell_formula_units_Z 8
loop_
_atom_type_symbol
_atom_type_radius_bond
C 0.68
H 0.23
N 0.68
O 0.68
P 1.05
loop_
_atom_site_label
_atom_site_type_symbol
_atom_site_fract_x
_atom_site_fract_y
_atom_site_fract_z
P1 P 0.97695(4) -0.02305(4) -0.02305(4)
C1 C 0.80718(15) -0.09385(17) -0.09597(17)
H1 H 0.76460 -0.12750 -0.08940
H2 H 0.79080 -0.05280 -0.12810
C2 C 0.82745(15) -0.06201(15) -0.02097(16)
H3 H 0.78230 -0.04060 0.00120
H4 H 0.84350 -0.10320 0.01120
C3 C 0.86090(16) 0.07114(15) -0.01986(17)
H5 H 0.82290 0.07780 -0.05850
H6 H 0.90330 0.10310 -0.03270
C4 C 0.82912(16) 0.09643(15) 0.05418(17)
C5 C 0.84819(19) 0.06281(17) 0.11986(18)
H7 H 0.88220 0.02290 0.11910
C6 C 0.81921(19) 0.08552(18) 0.18697(19)
H8 H 0.83380 0.06220 0.23160
C7 C 0.76897(19) 0.1424(2) 0.18772(19)
H9 H 0.74700 0.15710 0.23300
C8 C 0.7502(2) 0.17824(19) 0.1234(2)
H10 H 0.71690 0.21870 0.12500
C9 C 0.77936(17) 0.15604(17) 0.05690(19)
C10 C 0.7119(4) 0.2461(4) -0.0105(3)
H11 H 0.66820 0.23130 0.01790
H12 H 0.69740 0.25690 -0.06150
H13 H 0.73360 0.29040 0.01170
N1 N 0.88515(13) -0.00546(12) -0.02020(14)
N2 N 0.86572(14) -0.13428(14) -0.13428(14)
O1 O 0.76409(15) 0.18845(14) -0.00990(14)
P2 P 0.73705(4) 0.76295(4) 0.23705(4)
C11 C 0.67028(17) 0.93225(16) 0.15952(18)
H14 H 0.63890 0.97660 0.16580
H15 H 0.71030 0.94550 0.12470
C12 C 0.70519(16) 0.91420(16) 0.23373(18)
H16 H 0.72960 0.95940 0.25250
H17 H 0.66510 0.90160 0.26870
C13 C 0.83667(16) 0.87468(17) 0.23144(18)
H18 H 0.84460 0.90670 0.18790
H19 H 0.86630 0.82930 0.22420
C14 C 0.86491(16) 0.91466(17) 0.29977(17)
C15 C 0.82730(18) 0.9117(2) 0.36548(18)
H20 H 0.78470 0.88140 0.36940
C16 C 0.8506(2) 0.9525(2) 0.42704(19)
H21 H 0.82370 0.95000 0.47200
C17 C 0.9120(2) 0.9957(2) 0.4221(2)
H22 H 0.92680 1.02520 0.46290
C18 C 0.9534(2) 0.9965(2) 0.3565(2)
H23 H 0.99760 1.02470 0.35350
C19 C 0.92953(18) 0.95592(19) 0.29620(18)
C20 C 1.0368(3) 0.9885(4) 0.2240(4)
H24 H 1.03210 1.04130 0.23440
H25 H 1.05610 0.98160 0.17390
H26 H 1.07060 0.96600 0.25970
N3 N 0.75899(13) 0.85446(13) 0.23481(14)
N4 N 0.62546(15) 0.87454(15) 0.12546(15)
O2 O 0.96604(14) 0.95420(16) 0.22969(15)
C1D C 0.90403(15) -0.19282(17) -0.09385(17)
H1D H 0.91060 -0.23540 -0.12750
H2D H 0.87190 -0.20920 -0.05280
C2D C 0.97903(15) -0.17255(15) -0.06201(16)
H3D H 1.00120 -0.21770 -0.04060
H4D H 1.01120 -0.15650 -0.10320
C3D C 0.98014(16) -0.13910(15) 0.07114(17)
H5D H 0.94150 -0.17710 0.07780
H6D H 0.96730 -0.09670 0.10310
C4D C 1.05418(16) -0.17088(15) 0.09643(17)
C5D C 1.11986(19) -0.15181(17) 0.06281(18)
H7D H 1.11910 -0.11780 0.02290
C6D C 1.18697(19) -0.18079(18) 0.08552(19)
H8D H 1.23160 -0.16620 0.06220
C7D C 1.18772(19) -0.23103(20) 0.14240(19)
H9D H 1.23300 -0.25300 0.15710
C8D C 1.1234(2) -0.24980(19) 0.17824(20)
H10D H 1.12500 -0.28310 0.21870
C9D C 1.05690(17) -0.22064(17) 0.15604(19)
C10D C 0.9895(4) -0.2881(4) 0.2461(3)
H11D H 1.01790 -0.33180 0.23130
H12D H 0.93850 -0.30260 0.25690
H13D H 1.01170 -0.26640 0.29040
N1D N 0.97980(13) -0.11485(12) -0.00546(14)
O1D O 0.99010(15) -0.23591(14) 0.18845(14)
C1H C 0.90615(15) -0.09597(17) -0.19282(17)
H1H H 0.87250 -0.08940 -0.23540
H2H H 0.94720 -0.12810 -0.20920
C2H C 0.93799(15) -0.02097(15) -0.17255(16)
H3H H 0.95940 0.00120 -0.21770
H4H H 0.89680 0.01120 -0.15650
C3H C 1.07114(16) -0.01986(15) -0.13910(17)
H5H H 1.07780 -0.05850 -0.17710
H6H H 1.10310 -0.03270 -0.09670
C4H C 1.09643(16) 0.05418(15) -0.17088(17)
C5H C 1.06281(19) 0.11986(17) -0.15181(18)
H7H H 1.02290 0.11910 -0.11780
C6H C 1.08552(19) 0.18697(18) -0.18079(19)
H8H H 1.06220 0.23160 -0.16620
C7H C 1.14240(19) 0.18772(20) -0.23103(19)
H9H H 1.15710 0.23300 -0.25300
C8H C 1.17824(20) 0.12340(19) -0.2498(2)
H10H H 1.21870 0.12500 -0.28310
C9H C 1.15604(17) 0.05690(17) -0.22064(19)
C10H C 1.2461(4) -0.0105(4) -0.2881(3)
H11H H 1.23130 0.01790 -0.33180
H12H H 1.25690 -0.06150 -0.30260
H13H H 1.29040 0.01170 -0.26640
N1H N 0.99454(13) -0.02020(12) -0.11485(14)
O1H O 1.18845(15) -0.00990(14) -0.23591(14)
C11E C 0.65952(17) 0.82972(16) 0.06775(18)
H14E H 0.66580 0.86110 0.02340
H15E H 0.62470 0.78970 0.05450
C12E C 0.73373(16) 0.79481(16) 0.08580(18)
H16E H 0.75250 0.77040 0.04060
H17E H 0.76870 0.83490 0.09840
C13E C 0.73144(16) 0.66333(17) 0.12532(18)
H18E H 0.68790 0.65540 0.09330
H19E H 0.72420 0.63370 0.17070
C14E C 0.79977(16) 0.63509(17) 0.08534(17)
C15E C 0.86548(18) 0.6727(2) 0.08830(18)
H20E H 0.86940 0.71530 0.11860
C16E C 0.92704(20) 0.6494(2) 0.04750(19)
H21E H 0.97200 0.67630 0.05000
C17E C 0.9221(2) 0.5880(2) 0.0043(2)
H22E H 0.96290 0.57320 -0.02520
C18E C 0.8565(2) 0.5466(2) 0.0035(2)
H23E H 0.85350 0.50240 -0.02470
C19E C 0.79620(18) 0.57047(19) 0.04408(18)
C20E C 0.7240(3) 0.4632(4) 0.0115(4)
H24E H 0.73440 0.46790 -0.04130
H25E H 0.67390 0.44390 0.01840
H26E H 0.75970 0.42940 0.03400
N3E N 0.73481(13) 0.74101(13) 0.14554(14)
O2E O 0.72969(14) 0.53396(16) 0.04580(15)
C11K C 0.56775(17) 0.84048(16) 0.17028(18)
H14K H 0.52340 0.83420 0.13890
H15K H 0.55450 0.87530 0.21030
C12K C 0.58580(16) 0.76627(16) 0.20519(18)
H16K H 0.54060 0.74750 0.22960
H17K H 0.59840 0.73130 0.16510
C13K C 0.62532(16) 0.76856(17) 0.33667(18)
H18K H 0.59330 0.81210 0.34460
H19K H 0.67070 0.77580 0.36630
C14K C 0.58534(16) 0.70023(17) 0.36491(17)
C15K C 0.58830(18) 0.63452(20) 0.32730(18)
H20K H 0.61860 0.63060 0.28470
C16K C 0.5475(2) 0.57296(20) 0.35060(19)
H21K H 0.55000 0.52800 0.32370
C17K C 0.5043(2) 0.5779(2) 0.4120(2)
H22K H 0.47480 0.53710 0.42680
C18K C 0.5035(2) 0.6435(2) 0.4534(2)
H23K H 0.47530 0.64650 0.49760
C19K C 0.54408(18) 0.70380(19) 0.42953(18)
C20K C 0.5115(3) 0.7760(4) 0.5368(4)
H24K H 0.45870 0.76560 0.53210
H25K H 0.51840 0.82610 0.55610
H26K H 0.53400 0.74030 0.57060
N3K N 0.64554(13) 0.76519(13) 0.25899(14)
O2K O 0.54580(14) 0.77031(16) 0.46604(15)
#END

data_CSD_CIF_ZZZWJS01
_audit_creation_date 1982-09-17
_audit_creation_method CSD-ConQuest-V1
_database_code_CSD ZZZWJS01
_database_code_depnum_ccdc_archive 'CCDC 1321125'
_chemical_formula_sum 'C6 H9 Na1 Np1 O8'
_chemical_formula_moiety
;
C6 H9 Np1 O8 1-,Na1 1+
;
_journal_coden_Cambridge 186
_journal_year 1982
_journal_page_first 33
_journal_name_full 'J.Chem.Soc.,Dalton Trans. '
loop_
_publ_author_name
"N.W.Alcock"
"M.M.Roberts"
"D.Brown"
_chemical_name_systematic
;
Sodium tris(acetato)-dioxo-neptunium
;
_cell_volume   1203.871
_exptl_crystal_density_diffrn 2.59
_diffrn_ambient_temperature 153.15
#These two values have been output from a single CSD field.
_refine_ls_R_factor_gt 0.046
_refine_ls_wR_factor_gt 0.046
_symmetry_cell_setting cubic
_symmetry_space_group_name_H-M 'P 21 3'
_symmetry_Int_Tables_number 198
loop_
_symmetry_equiv_pos_site_id
_symmetry_equiv_pos_as_xyz
1 x,y,z
2 z,x,y
3 y,z,x
4 1/2+x,1/2-y,-z
5 1/2+z,1/2-x,-y
6 1/2+y,1/2-z,-x
7 -x,1/2+y,1/2-z
8 -z,1/2+x,1/2-y
9 -y,1/2+z,1/2-x
10 1/2-x,-y,1/2+z
11 1/2-z,-x,1/2+y
12 1/2-y,-z,1/2+x
_cell_length_a 10.638(4)
_cell_length_b 10.638(4)
_cell_length_c 10.638(4)
_cell_angle_alpha 90
_cell_angle_beta 90
_cell_angle_gamma 90
_cell_formula_units_Z 4
loop_
_atom_type_symbol
_atom_type_radius_bond
C 0.68
Na 0.97
Np 1.48
O 0.68
loop_
_atom_site_label
_atom_site_type_symbol
_atom_site_fract_x
_atom_site_fract_y
_atom_site_fract_z
Np1 Np 0.17935 0.17935 0.17935
O1 O 0.27520 0.27520 0.27520
O2 O 0.08240 0.08240 0.08240
O3 O 0.29780 0.25000 -0.00590
O4 O 0.36090 0.04410 0.13400
C1 C 0.22810 0.34250 -0.02660
C2 C 0.25790 0.43240 -0.13140
Na1 Na 0.57750 0.57750 0.57750
O3A O -0.00590 0.29780 0.25000
O3B O 0.25000 -0.00590 0.29780
O4A O 0.13400 0.36090 0.04410
O4B O 0.04410 0.13400 0.36090
C1B C 0.34250 -0.02660 0.22810
C1A C -0.02660 0.22810 0.34250
C2B C 0.43240 -0.13140 0.25790
C2A C -0.13140 0.25790 0.43240
#END

data_CSD_CIF_ZZZWKI01
_audit_creation_date 2013-09-11
_audit_creation_method CSD-ConQuest-V1
_database_code_CSD ZZZWKI01
_database_code_depnum_ccdc_archive 'CCDC 848826'
_chemical_formula_sum 'C9 H15 K1 O8 U1'
_chemical_formula_moiety
;
C9 H15 O8 U1 1-,K1 1+
;
_journal_coden_Cambridge 513
_journal_volume 54
_journal_year 2012
_journal_page_first 495
_journal_name_full 'Radiokhimiya(Russ.)(Radiochem.) '
loop_
_publ_author_name
"L.B.Serezhkina"
"E.V.Peresypkina"
"A.V.Virovets"
"A.R.Abdulmyanov"
"V.N.Serezhkin"
_chemical_name_systematic
;
Potassium dioxo-tris(propanoato-O,O')-uranium
;
_cell_volume   1494.408
_exptl_crystal_colour 'yellow'
_exptl_crystal_density_diffrn 2.348
_exptl_crystal_description 'prism'
_diffrn_ambient_temperature 100
#These two values have been output from a single CSD field.
_refine_ls_R_factor_gt 0.0187
_refine_ls_wR_factor_gt 0.0187
_symmetry_cell_setting cubic
_symmetry_space_group_name_H-M 'P 21 3'
_symmetry_Int_Tables_number 198
loop_
_symmetry_equiv_pos_site_id
_symmetry_equiv_pos_as_xyz
1 x,y,z
2 1/2-x,-y,1/2+z
3 -x,1/2+y,1/2-z
4 1/2+x,1/2-y,-z
5 z,x,y
6 1/2+z,1/2-x,-y
7 1/2-z,-x,1/2+y
8 -z,1/2+x,1/2-y
9 y,z,x
10 -y,1/2+z,1/2-x
11 1/2+y,1/2-z,-x
12 1/2-y,-z,1/2+x
_cell_length_a 11.4329(3)
_cell_length_b 11.4329(3)
_cell_length_c 11.4329(3)
_cell_angle_alpha 90
_cell_angle_beta 90
_cell_angle_gamma 90
_cell_formula_units_Z 4
loop_
_atom_type_symbol
_atom_type_radius_bond
C 0.68
H 0.23
K 2.03
O 0.68
U 1.96
loop_
_atom_site_label
_atom_site_type_symbol
_atom_site_fract_x
_atom_site_fract_y
_atom_site_fract_z
K1 K 0.40750(9) 0.40750(9) 0.40750(9)
U1 U 0.696682(12) 0.196682(12) 0.303318(12)
O1 O 0.6073(3) 0.1073(3) 0.3927(3)
O2 O 0.7856(3) 0.2856(3) 0.2144(3)
O3 O 0.6410(3) 0.3692(3) 0.4195(3)
O4 O 0.7936(3) 0.2713(3) 0.4824(3)
C1 C 0.7245(4) 0.3580(4) 0.4915(4)
C2 C 0.7443(9) 0.4502(6) 0.5822(7)
H1 H 0.77800 0.51950 0.54260
H2 H 0.66690 0.47380 0.61320
C3 C 0.8182(7) 0.4224(8) 0.6805(7)
H3 H 0.78820 0.46140 0.75080
H4 H 0.89800 0.44940 0.66480
H5 H 0.81860 0.33760 0.69290
O3G O 0.5805(3) 0.1410(3) 0.1308(3)
O4G O 0.5176(3) 0.2936(3) 0.2287(3)
C1G C 0.5085(4) 0.2245(4) 0.1420(4)
C2G C 0.4178(9) 0.2443(6) 0.0498(7)
H1G H 0.45740 0.27800 -0.01950
H2G H 0.38680 0.16690 0.02620
C3G C 0.3195(7) 0.3182(8) 0.0776(7)
H3G H 0.24920 0.28820 0.03860
H4G H 0.33520 0.39800 0.05060
H5G H 0.30710 0.31860 0.16240
O3J O 0.8692(3) 0.0805(3) 0.3590(3)
O4J O 0.7713(3) 0.0176(3) 0.2064(3)
C1J C 0.8580(4) 0.0085(4) 0.2755(4)
C2J C 0.9502(9) -0.0822(6) 0.2557(7)
H1J H 1.01950 -0.04260 0.22200
H2J H 0.97380 -0.11320 0.33310
C3J C 0.9224(7) -0.1805(8) 0.1818(7)
H3J H 0.96140 -0.25080 0.21180
H4J H 0.94940 -0.16480 0.10200
H5J H 0.83760 -0.19290 0.18140
#END

data_CSD_CIF_ZZZWKM13
_audit_creation_date 2013-09-11
_audit_creation_method CSD-ConQuest-V1
_database_code_CSD ZZZWKM13
_database_code_depnum_ccdc_archive 'CCDC 848827'
_chemical_formula_sum 'C9 H19 N1 O8 U1'
_chemical_formula_moiety
;
C9 H15 O8 U1 1-,H4 N1 1+
;
_journal_coden_Cambridge 513
_journal_volume 54
_journal_year 2012
_journal_page_first 495
_journal_name_full 'Radiokhimiya(Russ.)(Radiochem.) '
loop_
_publ_author_name
"L.B.Serezhkina"
"E.V.Peresypkina"
"A.V.Virovets"
"A.R.Abdulmyanov"
"V.N.Serezhkin"
_chemical_name_systematic
;
Ammonium dioxo-tris(propanoato-O,O')-uranium
;
_cell_volume   1562.927
_exptl_crystal_colour 'yellow'
_exptl_crystal_density_diffrn 2.156
_exptl_crystal_description 'plate'
_diffrn_ambient_temperature 123
#These two values have been output from a single CSD field.
_refine_ls_R_factor_gt 0.0305
_refine_ls_wR_factor_gt 0.0305
_symmetry_cell_setting cubic
_symmetry_space_group_name_H-M 'P 21 3'
_symmetry_Int_Tables_number 198
loop_
_symmetry_equiv_pos_site_id
_symmetry_equiv_pos_as_xyz
1 x,y,z
2 1/2-x,-y,1/2+z
3 -x,1/2+y,1/2-z
4 1/2+x,1/2-y,-z
5 z,x,y
6 1/2+z,1/2-x,-y
7 1/2-z,-x,1/2+y
8 -z,1/2+x,1/2-y
9 y,z,x
10 -y,1/2+z,1/2-x
11 1/2+y,1/2-z,-x
12 1/2-y,-z,1/2+x
_cell_length_a 11.60503(7)
_cell_length_b 11.60503(7)
_cell_length_c 11.60503(7)
_cell_angle_alpha 90
_cell_angle_beta 90
_cell_angle_gamma 90
_cell_formula_units_Z 4
loop_
_atom_type_symbol
_atom_type_radius_bond
C 0.68
H 0.23
N 0.68
O 0.68
U 1.96
loop_
_atom_site_label
_atom_site_type_symbol
_atom_site_fract_x
_atom_site_fract_y
_atom_site_fract_z
U1 U 0.542178(19) 0.457822(19) -0.042178(19)
O1 O 0.4536(4) 0.5464(4) 0.0464(4)
O2 O 0.6315(5) 0.3685(5) -0.1315(5)
O3 O 0.5990(5) 0.3432(5) 0.1274(5)
O4 O 0.4501(5) 0.2818(5) 0.0323(4)
C1 C 0.5200(7) 0.2709(7) 0.1185(7)
C2 C 0.5088(10) 0.1717(9) 0.2008(9)
H1 H 0.58530 0.13460 0.20810
H2 H 0.48830 0.20300 0.27750
C3 C 0.4231(9) 0.0809(9) 0.1704(9)
H3 H 0.42460 0.02000 0.22880
H4 H 0.44250 0.04810 0.09500
H5 H 0.34590 0.11500 0.16720
N1 N 0.8509(6) 0.3509(6) 0.1491(6)
H6 H 0.8022(12) 0.3022(12) 0.1978(12)
H7 H 0.921(5) 0.369(9) 0.193(6)
O3F O 0.3726(5) 0.4010(5) -0.1568(5)
O4F O 0.4677(5) 0.5499(5) -0.2182(4)
C1F C 0.3815(7) 0.4800(7) -0.2291(7)
C2F C 0.2992(10) 0.4912(9) -0.3283(9)
H1F H 0.29190 0.41470 -0.36540
H2F H 0.22250 0.51170 -0.29700
C3F C 0.3296(9) 0.5769(9) -0.4191(9)
H3F H 0.27120 0.57540 -0.48000
H4F H 0.40500 0.55750 -0.45190
H5F H 0.33280 0.65410 -0.38500
O3I O 0.6568(5) 0.6274(5) -0.0990(5)
O4I O 0.7182(5) 0.5323(5) 0.0499(4)
C1I C 0.7291(7) 0.6185(7) -0.0200(7)
C2I C 0.8283(10) 0.7008(9) -0.0088(9)
H1I H 0.86540 0.70810 -0.08530
H2I H 0.79700 0.77750 0.01170
C3I C 0.9191(9) 0.6704(9) 0.0769(9)
H3I H 0.98000 0.72880 0.07540
H4I H 0.95190 0.59500 0.05750
H5I H 0.88500 0.66720 0.15410
H7G H 0.807(5) 0.421(9) 0.131(6)
H7J H 0.869(5) 0.307(9) 0.079(6)
#END
