
#######################################################################
#
#                 Cambridge Crystallographic Data Centre
#                                CCDC
#
#######################################################################
#
# If this CIF has been generated from an entry in the Cambridge
# Structural Database, then it will include bibliographic, chemical,
# crystal, experimental, refinement or atomic coordinate data resulting
# from the CCDC's data processing and validation procedures.
#
#######################################################################

data_CSD_CIF_KAWBUJ
_audit_creation_date 2021-12-01
_audit_creation_method CSD-ConQuest-V1
_database_code_CSD KAWBUJ
_database_code_depnum_ccdc_archive 'CCDC 2115507'
_chemical_formula_sum 'C31 H22 F18 O4 P1 Sc1'
_chemical_formula_moiety
;
C31 H22 F18 O4 P1 Sc1
;
_journal_coden_Cambridge 9
_journal_volume 60
_journal_year 2021
_journal_page_first 19414
_journal_name_full 'Inorg.Chem. '
loop_
_publ_author_name
"J.-M.Morsdorf"
"T.Bruckhoff"
"R.Matveeva"
"B.Rudin"
"H.Wadepohl"
"J.Ballmann"
_chemical_name_systematic
;
(diethyl 
ether)-{2,2',2''-[(phosphanetriyl)tris(2,1-phenylene)]tris(hexafluoropropan-2-
olato)}-scandium
;
_cell_volume   6783.899
_exptl_crystal_colour 'colorless'
_exptl_crystal_density_diffrn 1.716
_exptl_special_details
;
air-sensitive, moisture-sensitive

;
_exptl_crystal_description 'plate'
_diffrn_ambient_temperature 120
#These two values have been output from a single CSD field.
_refine_ls_R_factor_gt 0.0442
_refine_ls_wR_factor_gt 0.0442
_symmetry_cell_setting cubic
_symmetry_space_group_name_H-M 'P a -3'
_symmetry_Int_Tables_number 205
loop_
_symmetry_equiv_pos_site_id
_symmetry_equiv_pos_as_xyz
1 x,y,z
2 1/2-x,-y,1/2+z
3 -x,1/2+y,1/2-z
4 1/2+x,1/2-y,-z
5 z,x,y
6 1/2+z,1/2-x,-y
7 1/2-z,-x,1/2+y
8 -z,1/2+x,1/2-y
9 y,z,x
10 -y,1/2+z,1/2-x
11 1/2+y,1/2-z,-x
12 1/2-y,-z,1/2+x
13 -x,-y,-z
14 -1/2+x,y,-1/2-z
15 x,-1/2-y,-1/2+z
16 -1/2-x,-1/2+y,z
17 -z,-x,-y
18 -1/2-z,-1/2+x,y
19 -1/2+z,x,-1/2-y
20 z,-1/2-x,-1/2+y
21 -y,-z,-x
22 y,-1/2-z,-1/2+x
23 -1/2-y,-1/2+z,x
24 -1/2+y,z,-1/2-x
_cell_length_a 18.93040(6)
_cell_length_b 18.93040(6)
_cell_length_c 18.93040(6)
_cell_angle_alpha 90
_cell_angle_beta 90
_cell_angle_gamma 90
_cell_formula_units_Z 8
loop_
_atom_type_symbol
_atom_type_radius_bond
C 0.68
H 0.23
F 0.64
O 0.68
P 1.05
Sc 1.70
loop_
_atom_site_label
_atom_site_type_symbol
_atom_site_fract_x
_atom_site_fract_y
_atom_site_fract_z
Sc1 Sc 0.18435(2) 0.31565(2) 0.68435(2)
P1 P 0.10731(2) 0.39269(2) 0.60731(2)
F1 F 0.12747(7) 0.14965(6) 0.53427(6)
F2 F 0.02613(8) 0.10824(5) 0.56662(7)
F3 F 0.11169(7) 0.11378(5) 0.64018(6)
F4 F -0.06362(6) 0.20314(7) 0.62458(6)
F5 F 0.00406(6) 0.17750(6) 0.71181(6)
F6 F -0.01595(6) 0.28599(6) 0.68585(6)
O1 O 0.11662(5) 0.24778(5) 0.64901(5)
O2 O 0.25053(6) 0.24947(6) 0.75053(6)
C1 C 0.06267(6) 0.34325(6) 0.53718(6)
C2 C 0.04337(6) 0.27127(6) 0.54383(6)
C3 C 0.00666(7) 0.23997(7) 0.48765(7)
H1 H -0.00876 0.19243 0.49224
C4 C -0.00786(8) 0.27604(7) 0.42568(7)
H2 H -0.03296 0.25328 0.38866
C5 C 0.01419(7) 0.34521(7) 0.41773(7)
H3 H 0.00602 0.36981 0.37476
C6 C 0.04845(6) 0.37809(6) 0.47354(6)
H4 H 0.06275 0.42592 0.46839
C7 C 0.06122(7) 0.22501(6) 0.60931(7)
C8 C 0.08105(10) 0.14819(7) 0.58668(8)
C9 C -0.00444(8) 0.22212(8) 0.65795(8)
C10 C 0.2297(5) 0.2347(7) 0.8197(4)
H5 H 0.20981 0.27745 0.84237
H6 H 0.27049 0.21824 0.84801
C11 C 0.1733(7) 0.1764(7) 0.8146(5)
H7 H 0.19224 0.13634 0.78786
H8 H 0.13139 0.19497 0.79053
H9 H 0.16028 0.16074 0.86223
C12 C 0.3202(3) 0.2231(3) 0.7253(4)
H10 H 0.34474 0.19447 0.76155
H11 H 0.35138 0.26192 0.70934
C13 C 0.2928(8) 0.1762(7) 0.6612(4)
H12 H 0.26391 0.20533 0.62965
H13 H 0.26425 0.13704 0.67949
H14 H 0.33328 0.15732 0.63509
F1E F 0.03427(7) 0.37253(6) 0.85035(6)
F2E F 0.06662(8) 0.47387(5) 0.89176(7)
F3E F 0.14018(7) 0.38831(5) 0.88622(6)
F4E F 0.12458(6) 0.56362(7) 0.79686(6)
F5E F 0.21181(6) 0.49594(6) 0.82250(6)
F6E F 0.18585(6) 0.51595(6) 0.71401(6)
O1E O 0.14901(5) 0.38338(5) 0.75222(5)
C1E C 0.03718(6) 0.43733(6) 0.65675(6)
C2E C 0.04383(6) 0.45663(6) 0.72873(6)
C3E C -0.01235(7) 0.49334(7) 0.76003(7)
H1E H -0.00776 0.50876 0.80756
C4E C -0.07432(8) 0.50786(7) 0.72396(7)
H2E H -0.11134 0.53296 0.74672
C5E C -0.08227(7) 0.48581(7) 0.65479(7)
H3E H -0.12524 0.49398 0.63019
C6E C -0.02646(6) 0.45155(6) 0.62191(6)
H4E H -0.03161 0.43725 0.57408
C7E C 0.10931(7) 0.43878(6) 0.77499(7)
C8E C 0.08668(10) 0.41895(7) 0.85181(8)
C9E C 0.15795(8) 0.50444(8) 0.77788(8)
F1K F 0.35035(7) 0.46573(6) 0.62747(6)
F2K F 0.39176(8) 0.43338(5) 0.52613(7)
F3K F 0.38622(7) 0.35982(5) 0.61169(6)
F4K F 0.29686(6) 0.37542(7) 0.43638(6)
F5K F 0.32250(6) 0.28819(6) 0.50406(6)
F6K F 0.21401(6) 0.31415(6) 0.48405(6)
O1K O 0.25222(5) 0.35099(5) 0.61662(5)
C1K C 0.15675(6) 0.46282(6) 0.56267(6)
C2K C 0.22873(6) 0.45617(6) 0.54337(6)
C3K C 0.26003(7) 0.51235(7) 0.50666(7)
H1K H 0.30756 0.50776 0.49124
C4K C 0.22396(8) 0.57432(7) 0.49214(7)
H2K H 0.24672 0.61134 0.46704
C5K C 0.15479(7) 0.58227(7) 0.51419(7)
H3K H 0.13019 0.62524 0.50602
C6K C 0.12191(6) 0.52646(6) 0.54845(6)
H4K H 0.07408 0.53161 0.56275
C7K C 0.27499(7) 0.39069(6) 0.56122(7)
C8K C 0.35181(10) 0.41332(7) 0.58105(8)
C9K C 0.27788(8) 0.34205(8) 0.49556(8)
#END

data_CSD_CIF_WAPXAQ
_audit_creation_date 2022-01-04
_audit_creation_method CSD-ConQuest-V1
_database_code_CSD WAPXAQ
_database_code_depnum_ccdc_archive 'CCDC 2116280'
_chemical_formula_sum 'C56 H72 Cd1 N6 Si3'
_chemical_formula_moiety
;
C38 H54 Cd1 N6 Si3,3(C6 H6)
;
_journal_coden_Cambridge 580
_journal_year 2022
_journal_page_first 115642
_journal_name_full 'Polyhedron '
loop_
_publ_author_name
"M.Hammond"
"D.A.Vaccaro"
"G.Parkin"
_chemical_name_systematic
;
(tris((1-isopropylbenzimidazol-2-yl)(dimethyl)silyl)methyl)-methyl-cadmium 
benzene solvate
;
_cell_volume  11054.098
_exptl_crystal_colour 'colorless'
_exptl_crystal_density_diffrn 1.233
_exptl_crystal_description 'block'
_diffrn_ambient_temperature 210
#These two values have been output from a single CSD field.
_refine_ls_R_factor_gt 0.0467
_refine_ls_wR_factor_gt 0.0467
_symmetry_cell_setting cubic
_symmetry_space_group_name_H-M 'P a -3'
_symmetry_Int_Tables_number 205
loop_
_symmetry_equiv_pos_site_id
_symmetry_equiv_pos_as_xyz
1 x,y,z
2 1/2-x,-y,1/2+z
3 -x,1/2+y,1/2-z
4 1/2+x,1/2-y,-z
5 z,x,y
6 1/2+z,1/2-x,-y
7 1/2-z,-x,1/2+y
8 -z,1/2+x,1/2-y
9 y,z,x
10 -y,1/2+z,1/2-x
11 1/2+y,1/2-z,-x
12 1/2-y,-z,1/2+x
13 -x,-y,-z
14 -1/2+x,y,-1/2-z
15 x,-1/2-y,-1/2+z
16 -1/2-x,-1/2+y,z
17 -z,-x,-y
18 -1/2-z,-1/2+x,y
19 -1/2+z,x,-1/2-y
20 z,-1/2-x,-1/2+y
21 -y,-z,-x
22 y,-1/2-z,-1/2+x
23 -1/2-y,-1/2+z,x
24 -1/2+y,z,-1/2-x
_cell_length_a 22.2762(12)
_cell_length_b 22.2762(12)
_cell_length_c 22.2762(12)
_cell_angle_alpha 90
_cell_angle_beta 90
_cell_angle_gamma 90
_cell_formula_units_Z 8
loop_
_atom_type_symbol
_atom_type_radius_bond
C 0.68
H 0.23
Cd 1.44
N 0.68
Si 1.20
loop_
_atom_site_label
_atom_site_type_symbol
_atom_site_fract_x
_atom_site_fract_y
_atom_site_fract_z
Cd1 Cd 0.21316(2) 0.21316(2) 0.21316(2)
Si1 Si 0.34426(4) 0.23227(4) 0.28005(4)
N1 N 0.31983(11) 0.18872(11) 0.16408(11)
N2 N 0.41677(11) 0.17344(12) 0.18519(12)
C1 C 0.27204(13) 0.27204(13) 0.27204(13)
C2 C 0.15677(14) 0.15677(14) 0.15677(14)
H1 H 0.11520 0.16070 0.16920
C3 C 0.40798(16) 0.28303(17) 0.30275(18)
H2 H 0.44460 0.25970 0.30620
H3 H 0.41330 0.31400 0.27260
H4 H 0.39880 0.30150 0.34110
C4 C 0.34280(16) 0.16672(16) 0.33241(15)
H5 H 0.38230 0.14850 0.33400
H6 H 0.33140 0.18020 0.37220
H7 H 0.31390 0.13740 0.31820
C5 C 0.36233(12) 0.19734(14) 0.20499(13)
C6 C 0.34675(15) 0.15925(13) 0.11632(14)
C7 C 0.32197(18) 0.13946(15) 0.06240(15)
H8 H 0.28110 0.14550 0.05360
C8 C 0.3594(2) 0.11069(17) 0.02232(17)
H9 H 0.34390 0.09690 -0.01440
C9 C 0.4197(2) 0.10174(18) 0.03536(18)
H10 H 0.44380 0.08180 0.00700
C10 C 0.44532(18) 0.12075(16) 0.08787(18)
H11 H 0.48630 0.11490 0.09600
C11 C 0.40723(15) 0.14927(14) 0.12884(15)
C12 C 0.47246(15) 0.17001(18) 0.22075(18)
H12 H 0.46360 0.18760 0.26060
C13 C 0.52249(17) 0.2078(2) 0.1928(2)
H13 H 0.55840 0.20460 0.21710
H14 H 0.53090 0.19330 0.15260
H15 H 0.50990 0.24940 0.19090
C14 C 0.4908(2) 0.1051(2) 0.2313(2)
H16 H 0.52750 0.10400 0.25470
H17 H 0.45910 0.08440 0.25280
H18 H 0.49740 0.08550 0.19290
H19? H 0.11520 0.16070 0.16920
H20? H 0.11520 0.16070 0.16920
C15 C 0.44006(16) 0.29388(17) 0.0531(2)
H21 H 0.41830 0.27450 0.08360
C16 C 0.47585(18) 0.34310(18) 0.06685(14)
H22 H 0.47830 0.35700 0.10660
C17 C 0.50808(15) 0.37182(14) 0.0218(2)
H23 H 0.53230 0.40510 0.03110
C18 C 0.50451(19) 0.3513(2) -0.03704(17)
H24 H 0.52630 0.37070 -0.06750
C19 C 0.4687(2) 0.3021(2) -0.05080(16)
H25 H 0.46630 0.28820 -0.09060
C20 C 0.43649(16) 0.27337(15) -0.0057(3)
H26 H 0.41230 0.24010 -0.01510
H1H H 0.16070 0.16920 0.11520
H1D H 0.16920 0.11520 0.16070
Si1D Si 0.28005(4) 0.34426(4) 0.23227(4)
N1D N 0.16408(11) 0.31983(11) 0.18872(11)
N2D N 0.18519(11) 0.41677(12) 0.17344(12)
C3D C 0.30275(16) 0.40798(17) 0.28303(18)
H2D H 0.30620 0.44460 0.25970
H3D H 0.27260 0.41330 0.31400
H4D H 0.34110 0.39880 0.30150
C4D C 0.33241(16) 0.34280(16) 0.16672(15)
H5D H 0.33400 0.38230 0.14850
H6D H 0.37220 0.33140 0.18020
H7D H 0.31820 0.31390 0.13740
C5D C 0.20499(12) 0.36233(14) 0.19734(13)
C6D C 0.11632(15) 0.34675(13) 0.15925(14)
C7D C 0.06240(18) 0.32197(15) 0.13946(15)
H8D H 0.05360 0.28110 0.14550
C8D C 0.02232(20) 0.35940(17) 0.11069(17)
H9D H -0.01440 0.34390 0.09690
C9D C 0.03536(20) 0.41970(18) 0.10174(18)
H10D H 0.00700 0.44380 0.08180
C10D C 0.08787(18) 0.44532(16) 0.12075(18)
H11D H 0.09600 0.48630 0.11490
C11D C 0.12884(15) 0.40723(14) 0.14927(15)
C12D C 0.22075(15) 0.47246(18) 0.17001(18)
H12D H 0.26060 0.46360 0.18760
C13D C 0.19280(17) 0.52249(20) 0.2078(2)
H13D H 0.21710 0.55840 0.20460
H14D H 0.15260 0.53090 0.19330
H15D H 0.19090 0.50990 0.24940
C14D C 0.2313(2) 0.4908(2) 0.1051(2)
H16D H 0.25470 0.52750 0.10400
H17D H 0.25280 0.45910 0.08440
H18D H 0.19290 0.49740 0.08550
Si1H Si 0.23227(4) 0.28005(4) 0.34426(4)
N1H N 0.18872(11) 0.16408(11) 0.31983(11)
N2H N 0.17344(11) 0.18519(12) 0.41677(12)
C3H C 0.28303(16) 0.30275(17) 0.40798(18)
H2H H 0.25970 0.30620 0.44460
H3H H 0.31400 0.27260 0.41330
H4H H 0.30150 0.34110 0.39880
C4H C 0.16672(16) 0.33241(16) 0.34280(15)
H5H H 0.14850 0.33400 0.38230
H6H H 0.18020 0.37220 0.33140
H7H H 0.13740 0.31820 0.31390
C5H C 0.19734(12) 0.20499(14) 0.36233(13)
C6H C 0.15925(15) 0.11632(13) 0.34675(14)
C7H C 0.13946(18) 0.06240(15) 0.32197(15)
H8H H 0.14550 0.05360 0.28110
C8H C 0.11069(20) 0.02232(17) 0.35940(17)
H9H H 0.09690 -0.01440 0.34390
C9H C 0.10174(20) 0.03536(18) 0.41970(18)
H10H H 0.08180 0.00700 0.44380
C10H C 0.12075(18) 0.08787(16) 0.44532(18)
H11H H 0.11490 0.09600 0.48630
C11H C 0.14927(15) 0.12884(14) 0.40723(15)
C12H C 0.17001(15) 0.22075(18) 0.47246(18)
H12H H 0.18760 0.26060 0.46360
C13H C 0.20780(17) 0.1928(2) 0.52249(20)
H13H H 0.20460 0.21710 0.55840
H14H H 0.19330 0.15260 0.53090
H15H H 0.24940 0.19090 0.50990
C14H C 0.1051(2) 0.2313(2) 0.4908(2)
H16H H 0.10400 0.25470 0.52750
H17H H 0.08440 0.25280 0.45910
H18H H 0.08550 0.19290 0.49740
#END

data_CSD_CIF_ABEWEL
_audit_creation_date 2011-11-29
_audit_creation_method CSD-ConQuest-V1
_database_code_CSD ABEWEL
_database_code_depnum_ccdc_archive 'CCDC 850920'
_chemical_formula_sum 'C45 H51 Cl1 Co1 Hf1 I1 N3 P3'
_chemical_formula_moiety
;
C45 H51 Cl1 Co1 Hf1 I1 N3 P3
;
_journal_coden_Cambridge 9
_journal_volume 50
_journal_year 2011
_journal_page_first 4647
_journal_name_full 'Inorg.Chem. '
loop_
_publ_author_name
"V.N.Setty"
"Wen Zhou"
"B.M.Foxman"
"C.M.Thomas"
_chemical_name_systematic
;
tris(\m~2~-N-Isopropyl-P,P-diphenylphosphinous 
amidato)-chloro-iodo-cobalt-hafnium
;
_cell_volume   9022.295
_exptl_crystal_colour 'blue green'
_exptl_crystal_density_diffrn 1.659
_exptl_crystal_description 'prism'
_diffrn_ambient_temperature 120
#These two values have been output from a single CSD field.
_refine_ls_R_factor_gt 0.0232
_refine_ls_wR_factor_gt 0.0232
_symmetry_cell_setting cubic
_symmetry_space_group_name_H-M 'P a -3'
_symmetry_Int_Tables_number 205
loop_
_symmetry_equiv_pos_site_id
_symmetry_equiv_pos_as_xyz
1 x,y,z
2 1/2-y,-z,1/2+x
3 1/2-x,-y,1/2+z
4 1/2+x,1/2-y,-z
5 z,x,y
6 -x,1/2+y,1/2-z
7 -y,1/2+z,1/2-x
8 1/2+z,1/2-x,-y
9 -z,1/2+x,1/2-y
10 1/2+y,1/2-z,-x
11 1/2-z,-x,1/2+y
12 y,z,x
13 -x,-y,-z
14 -1/2+y,z,-1/2-x
15 -1/2+x,y,-1/2-z
16 -1/2-x,-1/2+y,z
17 -z,-x,-y
18 x,-1/2-y,-1/2+z
19 y,-1/2-z,-1/2+x
20 -1/2-z,-1/2+x,y
21 z,-1/2-x,-1/2+y
22 -1/2-y,-1/2+z,x
23 -1/2+z,x,-1/2-y
24 -y,-z,-x
_cell_length_a 20.8180(3)
_cell_length_b 20.8180(3)
_cell_length_c 20.8180(3)
_cell_angle_alpha 90
_cell_angle_beta 90
_cell_angle_gamma 90
_cell_formula_units_Z 8
loop_
_atom_type_symbol
_atom_type_radius_bond
C 0.68
H 0.23
Cl 0.99
Co 1.26
Hf 1.40
I 1.40
N 0.68
P 1.05
loop_
_atom_site_label
_atom_site_type_symbol
_atom_site_fract_x
_atom_site_fract_y
_atom_site_fract_z
Hf1 Hf 0.890626(4) 0.390626(4) 0.109374(4)
I1 I 0.743393(7) 0.243393(7) 0.256607(7)
Co1 Co 0.814227(13) 0.314227(13) 0.185773(13)
Cl1 Cl 0.95583(3) 0.45583(3) 0.04417(3)
P1 P 0.83086(3) 0.26868(3) 0.08711(3)
N1 N 0.87515(9) 0.31801(10) 0.04215(9)
C1 C 0.75617(11) 0.24627(11) 0.04616(11)
C2 C 0.75409(13) 0.22385(16) -0.01707(13)
C3 C 0.69624(15) 0.21074(17) -0.04708(14)
C4 C 0.63938(14) 0.21849(15) -0.01420(14)
C5 C 0.64013(12) 0.23892(14) 0.04870(14)
C6 C 0.69825(12) 0.25315(13) 0.07870(12)
C7 C 0.87556(12) 0.19321(11) 0.08968(11)
C8 C 0.94264(12) 0.19572(12) 0.09314(12)
C9 C 0.97842(13) 0.13941(14) 0.09653(14)
C10 C 0.94789(15) 0.08036(13) 0.09706(14)
C11 C 0.88167(14) 0.07759(13) 0.09471(14)
C12 C 0.84540(12) 0.13370(12) 0.09140(13)
C13 C 0.89426(12) 0.30248(13) -0.02495(12)
C14 C 0.85897(16) 0.34545(16) -0.07170(13)
C15 C 0.96659(15) 0.30701(17) -0.03523(15)
H1 H 0.79180 0.21770 -0.03950
H2 H 0.69600 0.19740 -0.08930
H3 H 0.60100 0.21050 -0.03470
H4 H 0.60170 0.24340 0.07150
H5 H 0.69850 0.26720 0.12210
H6 H 0.96350 0.23540 0.09290
H7 H 1.02320 0.14250 0.09910
H8 H 0.97120 0.04270 0.09920
H9 H 0.86090 0.03840 0.09490
H10 H 0.80050 0.13160 0.08950
H11 H 0.88180 0.25870 -0.03310
H12 H 0.86910 0.33320 -0.11410
H13 H 0.87180 0.38840 -0.06440
H14 H 0.81350 0.34130 -0.06600
H15 H 0.97560 0.29640 -0.07910
H16 H 0.98070 0.35030 -0.02650
H17 H 0.98880 0.27750 -0.00780
P1H P 0.91289(3) 0.33086(3) 0.23132(3)
P1I P 0.76868(3) 0.41289(3) 0.16914(3)
N1H N 0.95785(9) 0.37515(10) 0.18199(9)
N1I N 0.81801(9) 0.45785(10) 0.12485(9)
C1I C 0.74627(11) 0.45384(11) 0.24383(11)
C1H C 0.95384(11) 0.25617(11) 0.25373(11)
C2I C 0.72385(13) 0.51707(16) 0.24591(13)
C2H C 1.01707(13) 0.25409(16) 0.27615(13)
C3I C 0.71074(15) 0.54708(17) 0.30376(14)
C3H C 1.04708(15) 0.19624(17) 0.28926(14)
C4I C 0.71849(14) 0.51420(15) 0.36062(14)
C4H C 1.01420(14) 0.13938(15) 0.28151(14)
C5I C 0.73892(12) 0.45130(14) 0.35987(14)
C5H C 0.95130(12) 0.14013(14) 0.26108(14)
C6I C 0.75315(12) 0.42130(13) 0.30175(12)
C6H C 0.92130(12) 0.19825(13) 0.24685(12)
C7I C 0.69321(12) 0.41032(11) 0.12444(11)
C7H C 0.91032(12) 0.37556(11) 0.30679(11)
C8I C 0.69572(12) 0.40686(12) 0.05736(12)
C8H C 0.90686(12) 0.44264(12) 0.30428(12)
C9I C 0.63941(13) 0.40347(14) 0.02158(14)
C9H C 0.90347(13) 0.47842(14) 0.36059(14)
C10I C 0.58036(15) 0.40294(13) 0.05211(14)
C10H C 0.90294(15) 0.44789(13) 0.41964(14)
C11I C 0.57759(14) 0.40529(13) 0.11833(14)
C11H C 0.90529(14) 0.38167(13) 0.42241(14)
C12I C 0.63370(12) 0.40860(12) 0.15460(13)
C12H C 0.90860(12) 0.34540(12) 0.36630(13)
C13I C 0.80248(12) 0.52495(13) 0.10574(12)
C13H C 1.02495(12) 0.39426(13) 0.19752(12)
C14I C 0.84545(16) 0.57170(16) 0.14103(13)
C14H C 1.07170(16) 0.35897(16) 0.15455(13)
C15I C 0.80701(15) 0.53523(17) 0.03341(15)
C15H C 1.03523(15) 0.46659(17) 0.19299(15)
H1I H 0.71770 0.53950 0.20820
H1H H 1.03950 0.29180 0.28230
H2I H 0.69740 0.58930 0.30400
H2H H 1.08930 0.19600 0.30260
H3I H 0.71050 0.53470 0.39900
H3H H 1.03470 0.10100 0.28950
H4I H 0.74340 0.42850 0.39830
H4H H 0.92850 0.10170 0.25660
H5I H 0.76720 0.37790 0.30150
H5H H 0.87790 0.19850 0.23280
H6I H 0.73540 0.40710 0.03650
H6H H 0.90710 0.46350 0.26460
H7I H 0.64250 0.40090 -0.02320
H7H H 0.90090 0.52320 0.35750
H8I H 0.54270 0.40080 0.02880
H8H H 0.90080 0.47120 0.45730
H9I H 0.53840 0.40510 0.13910
H9H H 0.90510 0.36090 0.46160
H10I H 0.63160 0.41050 0.19950
H10H H 0.91050 0.30050 0.36840
H11I H 0.75870 0.53310 0.11820
H11H H 1.03310 0.38180 0.24130
H12I H 0.83320 0.61410 0.13090
H12H H 1.11410 0.36910 0.16680
H13I H 0.88840 0.56440 0.12820
H13H H 1.06440 0.37180 0.11160
H14I H 0.84130 0.56600 0.18650
H14H H 1.06600 0.31350 0.15870
H15I H 0.79640 0.57910 0.02440
H15H H 1.07910 0.47560 0.20360
H16I H 0.85030 0.52650 0.01930
H16H H 1.02650 0.48070 0.14970
H17I H 0.77750 0.50780 0.01120
H17H H 1.00780 0.48880 0.22250
#END

data_CSD_CIF_AJIFUW
_audit_creation_date 2015-07-29
_audit_creation_method CSD-ConQuest-V1
_database_code_CSD AJIFUW
_database_code_depnum_ccdc_archive 'CCDC 1057060'
_chemical_formula_sum 'C60 H72 Mn3 N18 O24 S6'
_chemical_formula_moiety
;
2(C30 H30 Mn1 N9 O9 S3 1-),H12 Mn1 O6 2+
;
_journal_coden_Cambridge 155
_journal_volume 436
_journal_year 2015
_journal_page_first 16
_journal_name_full 'Inorg.Chim.Acta '
loop_
_publ_author_name
"A.Di Santo"
"D.M.Gil"
"F.Pomiro"
"O.E.Piro"
"G.A.Echeverria"
"M.Arena"
"C.Luciardi"
"R.E.Carbonio"
"A.B.Altabef"
_chemical_name_systematic
;
hexaaqua-manganese(ii) 
bis(tris(4-amino-N-(5-methyl-1,2-oxazol-3(2H)-ylidene)benzenesulfonamidato)-ma
nganese(ii))
;
_cell_volume   7469.307
_exptl_crystal_colour 'colorless'
_exptl_crystal_density_diffrn 1.589
_exptl_crystal_preparation 'water'
_diffrn_ambient_temperature 297
#These two values have been output from a single CSD field.
_refine_ls_R_factor_gt 0.0297
_refine_ls_wR_factor_gt 0.0297
_symmetry_cell_setting cubic
_symmetry_space_group_name_H-M 'P a -3'
_symmetry_Int_Tables_number 205
loop_
_symmetry_equiv_pos_site_id
_symmetry_equiv_pos_as_xyz
1 x,y,z
2 1/2-x,-y,1/2+z
3 -x,1/2+y,1/2-z
4 1/2+x,1/2-y,-z
5 z,x,y
6 1/2+z,1/2-x,-y
7 1/2-z,-x,1/2+y
8 -z,1/2+x,1/2-y
9 y,z,x
10 -y,1/2+z,1/2-x
11 1/2+y,1/2-z,-x
12 1/2-y,-z,1/2+x
13 -x,-y,-z
14 -1/2+x,y,-1/2-z
15 x,-1/2-y,-1/2+z
16 -1/2-x,-1/2+y,z
17 -z,-x,-y
18 -1/2-z,-1/2+x,y
19 -1/2+z,x,-1/2-y
20 z,-1/2-x,-1/2+y
21 -y,-z,-x
22 y,-1/2-z,-1/2+x
23 -1/2-y,-1/2+z,x
24 -1/2+y,z,-1/2-x
_cell_length_a 19.5476(1)
_cell_length_b 19.5476(1)
_cell_length_c 19.5476(1)
_cell_angle_alpha 90
_cell_angle_beta 90
_cell_angle_gamma 90
_cell_formula_units_Z 4
loop_
_atom_type_symbol
_atom_type_radius_bond
C 0.68
H 0.23
Mn 1.61
N 0.68
O 0.68
S 1.02
loop_
_atom_site_label
_atom_site_type_symbol
_atom_site_fract_x
_atom_site_fract_y
_atom_site_fract_z
C1 C 0.19096(12) 0.22561(12) -0.13523(11)
C2 C 0.21855(14) 0.15991(13) -0.13650(11)
H1 H 0.2189(17) 0.1368(17) -0.1769(17)
C3 C 0.24755(12) 0.13158(10) -0.07883(11)
H2 H 0.2662(12) 0.0871(14) -0.0812(12)
C4 C 0.24845(9) 0.16835(9) -0.01840(9)
C5 C 0.22154(10) 0.23417(10) -0.01623(11)
H3 H 0.2248(13) 0.2592(13) 0.0265(13)
C6 C 0.19348(11) 0.26254(11) -0.07420(12)
H4 H 0.1793(15) 0.3060(15) -0.0710(15)
C7 C 0.16325(10) -0.07577(10) 0.03926(10)
C8 C 0.22762(10) -0.05511(10) 0.02887(10)
H5 H 0.2610(14) -0.0809(14) 0.0118(14)
C9 C 0.22917(9) 0.01433(9) 0.04913(9)
C10 C 0.12706(14) -0.14139(13) 0.02788(17)
H6 H 0.1129(17) -0.1616(18) 0.072(2)
H7 H 0.1569(19) -0.1726(19) 0.0098(18)
H8 H 0.0878(17) -0.1329(16) 0.0018(17)
N1 N 0.15994(17) 0.25257(17) -0.19213(14)
H9 H 0.1516(19) 0.2950(19) -0.1911(18)
H10 H 0.166(2) 0.232(2) -0.230(2)
N2 N 0.28750(7) 0.05337(8) 0.04704(8)
N3 N 0.16787(8) 0.03416(8) 0.07052(8)
O1 O 0.23488(6) 0.15322(7) 0.11166(6)
O2 O 0.35079(7) 0.15909(8) 0.06754(8)
O3 O 0.12511(7) -0.02412(7) 0.06429(8)
Mn1 Mn 0.124495(14) 0.124495(14) 0.124495(14)
S1 S 0.28243(2) 0.13280(2) 0.05681(2)
Mn2 Mn 0.50000 0.00000 0.00000
O4 O 0.51973(9) 0.01978(9) -0.10751(7)
H11 H 0.4952(15) 0.0009(14) -0.1379(15)
H12 H 0.5292(16) 0.0540(16) -0.1241(15)
C1D C -0.13523(12) 0.19096(12) 0.22561(11)
C2D C -0.13650(14) 0.21855(13) 0.15991(11)
H1D H -0.1769(17) 0.2189(17) 0.1368(17)
C3D C -0.07883(12) 0.24755(10) 0.13158(11)
H2D H -0.0812(12) 0.2662(14) 0.0871(12)
C4D C -0.01840(9) 0.24845(9) 0.16835(9)
C5D C -0.01623(10) 0.22154(10) 0.23417(11)
H3D H 0.0265(13) 0.2248(13) 0.2592(13)
C6D C -0.07420(11) 0.19348(11) 0.26254(12)
H4D H -0.0710(15) 0.1793(15) 0.3060(15)
C7D C 0.03926(10) 0.16325(10) -0.07577(10)
C8D C 0.02887(10) 0.22762(10) -0.05511(10)
H5D H 0.0118(14) 0.2610(14) -0.0809(14)
C9D C 0.04913(9) 0.22917(9) 0.01433(9)
C10D C 0.02788(14) 0.12706(13) -0.14139(17)
H6D H 0.0720(17) 0.1129(18) -0.1616(20)
H7D H 0.0098(19) 0.1569(19) -0.1726(18)
H8D H 0.0018(17) 0.0878(16) -0.1329(17)
N1D N -0.19213(17) 0.15994(17) 0.25257(14)
H9D H -0.1911(19) 0.1516(19) 0.2950(18)
H10D H -0.230(2) 0.166(2) 0.232(2)
N2D N 0.04704(7) 0.28750(8) 0.05337(8)
N3D N 0.07052(8) 0.16787(8) 0.03416(8)
O1D O 0.11166(6) 0.23488(7) 0.15322(6)
O2D O 0.06754(7) 0.35079(8) 0.15909(8)
O3D O 0.06429(7) 0.12511(7) -0.02412(8)
S1D S 0.05681(2) 0.28243(2) 0.13280(2)
C1H C 0.22561(12) -0.13523(12) 0.19096(11)
C2H C 0.15991(14) -0.13650(13) 0.21855(11)
H1H H 0.1368(17) -0.1769(17) 0.2189(17)
C3H C 0.13158(12) -0.07883(10) 0.24755(11)
H2H H 0.0871(12) -0.0812(14) 0.2662(12)
C4H C 0.16835(9) -0.01840(9) 0.24845(9)
C5H C 0.23417(10) -0.01623(10) 0.22154(11)
H3H H 0.2592(13) 0.0265(13) 0.2248(13)
C6H C 0.26254(11) -0.07420(11) 0.19348(12)
H4H H 0.3060(15) -0.0710(15) 0.1793(15)
C7H C -0.07577(10) 0.03926(10) 0.16325(10)
C8H C -0.05511(10) 0.02887(10) 0.22762(10)
H5H H -0.0809(14) 0.0118(14) 0.2610(14)
C9H C 0.01433(9) 0.04913(9) 0.22917(9)
C10H C -0.14139(14) 0.02788(13) 0.12706(17)
H6H H -0.1616(17) 0.0720(18) 0.1129(20)
H7H H -0.1726(19) 0.0098(19) 0.1569(18)
H8H H -0.1329(17) 0.0018(16) 0.0878(17)
N1H N 0.25257(17) -0.19213(17) 0.15994(14)
H9H H 0.2950(19) -0.1911(19) 0.1516(18)
H10H H 0.232(2) -0.230(2) 0.166(2)
N2H N 0.05337(7) 0.04704(8) 0.28750(8)
N3H N 0.03416(8) 0.07052(8) 0.16787(8)
O1H O 0.15322(6) 0.11166(7) 0.23488(6)
O2H O 0.15909(7) 0.06754(8) 0.35079(8)
O3H O -0.02412(7) 0.06429(7) 0.12511(8)
S1H S 0.13280(2) 0.05681(2) 0.28243(2)
O4E O 0.39249(9) -0.01973(9) -0.01978(7)
H11E H 0.3621(15) 0.0048(14) -0.0009(15)
H12E H 0.3759(16) -0.0292(16) -0.0540(15)
O4K O 0.48022(9) 0.10751(9) 0.01973(7)
H11K H 0.4991(15) 0.1379(14) -0.0048(15)
H12K H 0.4460(16) 0.1241(16) 0.0292(15)
O4L O 0.48027(9) -0.01978(9) 0.10751(7)
H11L H 0.5048(15) -0.0009(14) 0.1379(15)
H12L H 0.4708(16) -0.0540(16) 0.1241(15)
O4Q O 0.60751(9) 0.01973(9) 0.01978(7)
H11Q H 0.6379(15) -0.0048(14) 0.0009(15)
H12Q H 0.6241(16) 0.0292(16) 0.0540(15)
O4W O 0.51978(9) -0.10751(9) -0.01973(7)
H11W H 0.5009(15) -0.1379(14) 0.0048(15)
H12W H 0.5540(16) -0.1241(16) -0.0292(15)
#END

data_CSD_CIF_AKEJUV
_audit_creation_date 2003-12-16
_audit_creation_method CSD-ConQuest-V1
_database_code_CSD AKEJUV
_database_code_depnum_ccdc_archive 'CCDC 213307'
_chemical_formula_sum 'C14 H30 Au2 P2'
_chemical_formula_moiety
;
C14 H30 Au2 P2
;
_journal_coden_Cambridge 579
_journal_volume 22
_journal_year 2003
_journal_page_first 3199
_journal_name_full 'Organometallics '
loop_
_publ_author_name
"Ruei-Yang Liau"
"A.Schier"
"H.Schmidbaur"
_chemical_name_systematic
;
(\m~2~-Ethyne-1,2-diyl)-bis(triethylphosphine)-di-gold
;
_chemical_melting_point 453.15
_cell_volume   1893.645
_exptl_crystal_colour 'colorless'
_exptl_crystal_density_diffrn 2.295
_exptl_special_details
;
Melting point range 453.15-454.15K

;
_exptl_crystal_description 'block'
_exptl_crystal_preparation 'dichloromethane/n-pentane'
_diffrn_ambient_temperature 143
#These two values have been output from a single CSD field.
_refine_ls_R_factor_gt 0.0245
_refine_ls_wR_factor_gt 0.0245
_symmetry_cell_setting cubic
_symmetry_space_group_name_H-M 'P a -3'
_symmetry_Int_Tables_number 205
loop_
_symmetry_equiv_pos_site_id
_symmetry_equiv_pos_as_xyz
1 x,y,z
2 z,x,y
3 y,z,x
4 1/2+x,y,1/2-z
5 x,1/2-y,1/2+z
6 1/2-x,1/2+y,z
7 1/2-z,1/2+x,y
8 1/2+z,x,1/2-y
9 z,1/2-x,1/2+y
10 y,1/2-z,1/2+x
11 1/2-y,1/2+z,x
12 1/2+y,z,1/2-x
13 -x,-y,-z
14 -z,-x,-y
15 -y,-z,-x
16 -1/2-x,-y,-1/2+z
17 -x,-1/2+y,-1/2-z
18 -1/2+x,-1/2-y,-z
19 -1/2+z,-1/2-x,-y
20 -1/2-z,-x,-1/2+y
21 -z,-1/2+x,-1/2-y
22 -y,-1/2+z,-1/2-x
23 -1/2+y,-1/2-z,-x
24 -1/2-y,-z,-1/2+x
_cell_length_a 12.3718(1)
_cell_length_b 12.3718(1)
_cell_length_c 12.3718(1)
_cell_angle_alpha 90
_cell_angle_beta 90
_cell_angle_gamma 90
_cell_formula_units_Z 4
loop_
_atom_type_symbol
_atom_type_radius_bond
C 0.68
H 0.23
Au 1.50
P 1.05
loop_
_atom_site_label
_atom_site_type_symbol
_atom_site_fract_x
_atom_site_fract_y
_atom_site_fract_z
Au1 Au 0.121302(13) 0.121302(13) 0.121302(13)
P1 P 0.22783(9) 0.22783(9) 0.22783(9)
C1 C 0.0283(4) 0.0283(4) 0.0283(4)
C2 C 0.1566(5) 0.3423(4) 0.2871(4)
H1 H 0.10520 0.31520 0.34210
H2 H 0.20950 0.38930 0.32430
C3 C 0.0948(5) 0.4097(5) 0.2048(5)
H3 H 0.05840 0.46960 0.24170
H4 H 0.04090 0.36420 0.16870
H5 H 0.14530 0.43850 0.15100
C2A C 0.2871(5) 0.1566(4) 0.3423(4)
H1A H 0.34210 0.10520 0.31520
H2A H 0.32430 0.20950 0.38930
C3A C 0.2048(5) 0.0948(5) 0.4097(5)
H3A H 0.24170 0.05840 0.46960
H4A H 0.16870 0.04090 0.36420
H5A H 0.15100 0.14530 0.43850
C2B C 0.3423(5) 0.2871(4) 0.1566(4)
H1B H 0.31520 0.34210 0.10520
H2B H 0.38930 0.32430 0.20950
C3B C 0.4097(5) 0.2048(5) 0.0948(5)
H3B H 0.46960 0.24170 0.05840
H4B H 0.36420 0.16870 0.04090
H5B H 0.43850 0.15100 0.14530
C1L C -0.0283(4) -0.0283(4) -0.0283(4)
Au1L Au -0.121302(13) -0.121302(13) -0.121302(13)
P1L P -0.22783(9) -0.22783(9) -0.22783(9)
C2L C -0.1566(5) -0.3423(4) -0.2871(4)
H1L H -0.10520 -0.31520 -0.34210
H2L H -0.20950 -0.38930 -0.32430
C3L C -0.0948(5) -0.4097(5) -0.2048(5)
H3L H -0.05840 -0.46960 -0.24170
H4L H -0.04090 -0.36420 -0.16870
H5L H -0.14530 -0.43850 -0.15100
C2M C -0.2871(5) -0.1566(4) -0.3423(4)
H1M H -0.34210 -0.10520 -0.31520
H2M H -0.32430 -0.20950 -0.38930
C3M C -0.2048(5) -0.0948(5) -0.4097(5)
H3M H -0.24170 -0.05840 -0.46960
H4M H -0.16870 -0.04090 -0.36420
H5M H -0.15100 -0.14530 -0.43850
C2N C -0.3423(5) -0.2871(4) -0.1566(4)
H1N H -0.31520 -0.34210 -0.10520
H2N H -0.38930 -0.32430 -0.20950
C3N C -0.4097(5) -0.2048(5) -0.0948(5)
H3N H -0.46960 -0.24170 -0.05840
H4N H -0.36420 -0.16870 -0.04090
H5N H -0.43850 -0.15100 -0.14530
#END

data_CSD_CIF_ALEDEA
_audit_creation_date 2004-02-17
_audit_creation_method CSD-ConQuest-V1
_database_code_CSD ALEDEA
_database_code_depnum_ccdc_archive 'CCDC 222490'
_chemical_formula_sum 'C24 H110 N6 O64 P6 Zn9'
_chemical_formula_moiety
;
C24 H42 N6 O30 P6 Zn7,2(H12 O6 Zn1),22(H2 O1)
;
_journal_coden_Cambridge 9
_journal_volume 42
_journal_year 2003
_journal_page_first 6157
_journal_name_full 'Inorg.Chem. '
loop_
_publ_author_name
"Chong Lei"
"Jiang-Gao Mao"
"Yan-Qiong Sun"
"Hui-Yi Zeng"
"A.Clearfield"
_chemical_name_systematic
;
hexakis(\m~4~-N-(phosphonomethyl)-N-methylglycinato)-hepta-zinc(ii) 
bis(hexaaqua-zinc(ii)) hydrate
;
_cell_volume   8144.623
_exptl_crystal_colour 'colorless'
_exptl_crystal_density_diffrn 1.86
_exptl_crystal_description 'block'
_diffrn_ambient_temperature 293
#These two values have been output from a single CSD field.
_refine_ls_R_factor_gt 0.0362
_refine_ls_wR_factor_gt 0.0362
_symmetry_cell_setting cubic
_symmetry_space_group_name_H-M 'P a -3'
_symmetry_Int_Tables_number 205
loop_
_symmetry_equiv_pos_site_id
_symmetry_equiv_pos_as_xyz
1 x,y,z
2 z,x,y
3 y,z,x
4 1/2+x,y,1/2-z
5 x,1/2-y,1/2+z
6 1/2-x,1/2+y,z
7 1/2-z,1/2+x,y
8 1/2+z,x,1/2-y
9 z,1/2-x,1/2+y
10 y,1/2-z,1/2+x
11 1/2-y,1/2+z,x
12 1/2+y,z,1/2-x
13 -x,-y,-z
14 -z,-x,-y
15 -y,-z,-x
16 -1/2-x,-y,-1/2+z
17 -x,-1/2+y,-1/2-z
18 -1/2+x,-1/2-y,-z
19 -1/2+z,-1/2-x,-y
20 -1/2-z,-x,-1/2+y
21 -z,-1/2+x,-1/2-y
22 -y,-1/2+z,-1/2-x
23 -1/2+y,-1/2-z,-x
24 -1/2-y,-z,-1/2+x
_cell_length_a 20.1198(4)
_cell_length_b 20.1198(4)
_cell_length_c 20.1198(4)
_cell_angle_alpha 90
_cell_angle_beta 90
_cell_angle_gamma 90
_cell_formula_units_Z 4
loop_
_atom_type_symbol
_atom_type_radius_bond
C 0.68
H 0.23
N 0.68
O 0.68
P 1.05
Zn 1.45
loop_
_atom_site_label
_atom_site_type_symbol
_atom_site_fract_x
_atom_site_fract_y
_atom_site_fract_z
Zn1 Zn 0.44013(2) 0.15115(2) 0.08054(2)
Zn2 Zn 0.50000 0.00000 0.00000
Zn3 Zn 0.20732(3) 0.20732(3) 0.20732(3)
P1 P 0.54911(5) 0.15315(5) -0.03014(5)
N1 N 0.48349(18) 0.24128(18) 0.04767(19)
C1 C 0.3917(2) 0.2812(2) 0.1162(2)
C2 C 0.5104(2) 0.2341(2) -0.0207(2)
H1 H 0.54280 0.26870 -0.02910
H2 H 0.47470 0.23880 -0.05270
C3 C 0.4312(3) 0.2919(2) 0.0526(3)
H3 H 0.40190 0.28890 0.01440
H4 H 0.45110 0.33590 0.05280
C4 C 0.5369(3) 0.2590(3) 0.0955(2)
H5 H 0.55750 0.29980 0.08200
H6 H 0.56950 0.22420 0.09650
H7 H 0.51810 0.26440 0.13910
O1 O 0.36414(19) 0.33028(16) 0.14291(19)
O2 O 0.38792(15) 0.22239(15) 0.13791(16)
O3 O 0.49247(14) 0.11482(15) 0.15416(15)
O4 O 0.35793(15) 0.10402(14) 0.05852(14)
O5 O 0.49896(14) 0.10512(13) 0.00194(14)
O6 O 0.23541(18) 0.16843(18) 0.11424(17)
O7 O 0.1814(2) 0.23617(18) 0.30420(17)
O8 O 0.3910(3) 0.4652(2) 0.1344(3)
O9 O 0.3844(2) 0.1156(2) -0.1156(2)
O10 O 0.6969(2) 0.27168(19) 0.0017(2)
O11 O 0.5397(3) 0.4603(3) -0.0397(3)
O12 O 0.4346(3) 0.3203(3) 0.2721(3)
O3K O 0.61482(14) 0.15416(15) 0.00753(15)
Zn1K Zn 0.65115(2) 0.08054(2) 0.05987(2)
N1K N 0.74128(18) 0.04767(18) 0.01651(19)
C2K C 0.7341(2) -0.0207(2) -0.0104(2)
P1K P 0.65315(5) -0.03014(5) -0.04911(5)
O3R O 0.65416(14) 0.00753(15) -0.11482(15)
Zn1R Zn 0.58054(2) 0.05987(2) -0.15115(2)
N1R N 0.54767(18) 0.01651(18) -0.24128(19)
C2R C 0.4793(2) -0.0104(2) -0.2341(2)
P1R P 0.46986(5) -0.04911(5) -0.15315(5)
O3L O 0.50753(14) -0.11482(15) -0.15416(15)
Zn1L Zn 0.55987(2) -0.15115(2) -0.08054(2)
N1L N 0.51651(18) -0.24128(18) -0.04767(19)
C2L C 0.4896(2) -0.2341(2) 0.0207(2)
P1L P 0.45089(5) -0.15315(5) 0.03014(5)
O3W O 0.38518(14) -0.15416(15) -0.00753(15)
Zn1W Zn 0.34885(2) -0.08054(2) -0.05987(2)
N1W N 0.25872(18) -0.04767(18) -0.01651(19)
C2W C 0.2659(2) 0.0207(2) 0.0104(2)
P1W P 0.34685(5) 0.03014(5) 0.04911(5)
O3F O 0.34584(14) -0.00753(15) 0.11482(15)
Zn1F Zn 0.41946(2) -0.05987(2) 0.15115(2)
N1F N 0.45233(18) -0.01651(18) 0.24128(19)
C2F C 0.5207(2) 0.0104(2) 0.2341(2)
P1F P 0.53014(5) 0.04911(5) 0.15315(5)
O5W O 0.39488(14) -0.00194(13) -0.00104(14)
O2W O 0.27761(15) -0.13791(15) -0.11208(16)
C1W C 0.2188(2) -0.1162(2) -0.1083(2)
C3W C 0.2081(3) -0.0526(2) -0.0688(3)
C4W C 0.2410(3) -0.0955(3) 0.0369(2)
H5W H 0.20020 -0.08200 0.05750
H6W H 0.27580 -0.09650 0.06950
H7W H 0.23560 -0.13910 0.01810
H3W H 0.21110 -0.01440 -0.09810
H4W H 0.16410 -0.05280 -0.04890
O1W O 0.16972(19) -0.14291(16) -0.13586(19)
O4W O 0.39598(15) -0.05852(14) -0.14207(14)
O5R O 0.50194(14) 0.00104(13) -0.10512(14)
O2R O 0.63791(15) 0.11208(15) -0.22239(16)
C1R C 0.6162(2) 0.1083(2) -0.2812(2)
C3R C 0.5526(3) 0.0688(2) -0.2919(3)
C4R C 0.5955(3) -0.0369(3) -0.2590(2)
H5R H 0.58200 -0.05750 -0.29980
H6R H 0.59650 -0.06950 -0.22420
H7R H 0.63910 -0.01810 -0.26440
H3R H 0.51440 0.09810 -0.28890
H4R H 0.55280 0.04890 -0.33590
O1R O 0.64291(19) 0.13586(16) -0.33028(19)
O4R O 0.55852(15) 0.14207(14) -0.10402(14)
O5F O 0.49806(14) -0.00104(13) 0.10512(14)
O2F O 0.36209(15) -0.11208(15) 0.22239(16)
C1F C 0.3838(2) -0.1083(2) 0.2812(2)
C3F C 0.4474(3) -0.0688(2) 0.2919(3)
C4F C 0.4045(3) 0.0369(3) 0.2590(2)
H5F H 0.41800 0.05750 0.29980
H6F H 0.40350 0.06950 0.22420
H7F H 0.36090 0.01810 0.26440
H3F H 0.48560 -0.09810 0.28890
H4F H 0.44720 -0.04890 0.33590
O1F O 0.35709(19) -0.13586(16) 0.33028(19)
O4F O 0.44148(15) -0.14207(14) 0.10402(14)
O5L O 0.50104(14) -0.10512(13) -0.00194(14)
O2L O 0.61208(15) -0.22239(15) -0.13791(16)
C1L C 0.6083(2) -0.2812(2) -0.1162(2)
C3L C 0.5688(3) -0.2919(2) -0.0526(3)
C4L C 0.4631(3) -0.2590(3) -0.0955(2)
H5L H 0.44250 -0.29980 -0.08200
H6L H 0.43050 -0.22420 -0.09650
H7L H 0.48190 -0.26440 -0.13910
H3L H 0.59810 -0.28890 -0.01440
H4L H 0.54890 -0.33590 -0.05280
O1L O 0.63586(19) -0.33028(16) -0.14291(19)
O4L O 0.64207(15) -0.10402(14) -0.05852(14)
O5K O 0.60512(14) 0.00194(13) 0.00104(14)
O2K O 0.72239(15) 0.13791(15) 0.11208(16)
C1K C 0.7812(2) 0.1162(2) 0.1083(2)
C3K C 0.7919(3) 0.0526(2) 0.0688(3)
C4K C 0.7590(3) 0.0955(3) -0.0369(2)
H5K H 0.79980 0.08200 -0.05750
H6K H 0.72420 0.09650 -0.06950
H7K H 0.76440 0.13910 -0.01810
H3K H 0.78890 0.01440 0.09810
H4K H 0.83590 0.05280 0.04890
O1K O 0.83028(19) 0.14291(16) 0.13586(19)
O4K O 0.60402(15) 0.05852(14) 0.14207(14)
H1F H 0.52910 0.04280 0.26870
H2F H 0.55270 -0.02530 0.23880
H1W H 0.23130 0.02910 0.04280
H2W H 0.26120 0.05270 -0.02530
H1L H 0.45720 -0.26870 0.02910
H2L H 0.52530 -0.23880 0.05270
H1R H 0.47090 -0.04280 -0.26870
H2R H 0.44730 0.02530 -0.23880
H1K H 0.76870 -0.02910 -0.04280
H2K H 0.73880 -0.05270 0.02530
O6A O 0.11424(18) 0.23541(18) 0.16843(17)
O6B O 0.16843(18) 0.11424(18) 0.23541(17)
O7A O 0.3042(2) 0.18140(18) 0.23617(17)
O7B O 0.23617(20) 0.30420(18) 0.18140(17)
#END

data_CSD_CIF_AMOCIO
_audit_creation_date 2004-04-01
_audit_creation_method CSD-ConQuest-V1
_database_code_CSD AMOCIO
_database_code_depnum_ccdc_archive 'CCDC 211056'
_chemical_formula_sum 'C57 H63 N6 O21 Sm1'
_chemical_formula_moiety
;
C57 H39 N6 O9 Sm1,12(H2 O1)
;
_journal_coden_Cambridge 119
_journal_volume 687
_journal_year 2004
_journal_page_first 1
_journal_name_full 'J.Mol.Struct. '
loop_
_publ_author_name
"Bao-Li An"
"Meng-Lian Gong"
"Ming-Xing Li"
"Ji-Ming Zhang"
_chemical_name_systematic
;
tris(6-(Diphenylaminocarbonyl)-2-pyridinecarboxylato-N,O,O')-samarium(iii) 
dodecahydrate
;
_cell_volume  11974.097
_exptl_crystal_colour 'colorless'
_exptl_crystal_density_diffrn 1.436
_exptl_special_details
;
red fluorescent

;
_exptl_crystal_description 'block'
_diffrn_ambient_temperature 293
#These two values have been output from a single CSD field.
_refine_ls_R_factor_gt 0.0422
_refine_ls_wR_factor_gt 0.0422
_symmetry_cell_setting cubic
_symmetry_space_group_name_H-M 'P a -3'
_symmetry_Int_Tables_number 205
loop_
_symmetry_equiv_pos_site_id
_symmetry_equiv_pos_as_xyz
1 x,y,z
2 z,x,y
3 y,z,x
4 1/2+x,y,1/2-z
5 x,1/2-y,1/2+z
6 1/2-x,1/2+y,z
7 1/2-z,1/2+x,y
8 1/2+z,x,1/2-y
9 z,1/2-x,1/2+y
10 y,1/2-z,1/2+x
11 1/2-y,1/2+z,x
12 1/2+y,z,1/2-x
13 -x,-y,-z
14 -z,-x,-y
15 -y,-z,-x
16 -1/2-x,-y,-1/2+z
17 -x,-1/2+y,-1/2-z
18 -1/2+x,-1/2-y,-z
19 -1/2+z,-1/2-x,-y
20 -1/2-z,-x,-1/2+y
21 -z,-1/2+x,-1/2-y
22 -y,-1/2+z,-1/2-x
23 -1/2+y,-1/2-z,-x
24 -1/2-y,-z,-1/2+x
_cell_length_a 22.8778(7)
_cell_length_b 22.8778(7)
_cell_length_c 22.8778(7)
_cell_angle_alpha 90
_cell_angle_beta 90
_cell_angle_gamma 90
_cell_formula_units_Z 8
loop_
_atom_type_symbol
_atom_type_radius_bond
C 0.68
H 0.23
N 0.68
O 0.68
Sm 1.80
loop_
_atom_site_label
_atom_site_type_symbol
_atom_site_fract_x
_atom_site_fract_y
_atom_site_fract_z
Sm1 Sm 0.854613(10) 0.354613(10) 0.145387(10)
O1 O 1.03721(18) 0.3042(2) 0.0958(2)
O2 O 0.94563(16) 0.33740(16) 0.09809(15)
O3 O 0.83609(15) 0.34482(14) 0.25024(15)
N1 N 0.93636(16) 0.31302(16) 0.21062(17)
N2 N 0.85263(18) 0.3224(2) 0.34365(17)
C1 C 0.9898(3) 0.3112(2) 0.1203(3)
C2 C 0.9828(2) 0.2909(2) 0.1822(2)
C3 C 1.0193(2) 0.2500(3) 0.2083(3)
H1 H 1.05140 0.23500 0.18840
C4 C 1.0071(3) 0.2325(3) 0.2632(3)
H2 H 1.03040 0.20420 0.28070
C5 C 0.9602(2) 0.2562(2) 0.2945(2)
H3 H 0.95260 0.24500 0.33290
C6 C 0.9252(2) 0.2971(2) 0.2659(2)
C7 C 0.8694(2) 0.3237(2) 0.2873(2)
C8 C 0.8930(2) 0.3150(2) 0.3918(2)
C9 C 0.9358(2) 0.3559(3) 0.4017(3)
H4 H 0.93870 0.38880 0.37790
C10 C 0.9742(3) 0.3481(4) 0.4468(3)
H5 H 1.00340 0.37560 0.45330
C11 C 0.9701(3) 0.3018(5) 0.4815(3)
H6 H 0.99690 0.29710 0.51170
C12 C 0.9265(3) 0.2599(4) 0.4736(3)
H7 H 0.92380 0.22810 0.49870
C13 C 0.8865(3) 0.2663(3) 0.4274(2)
H8 H 0.85700 0.23910 0.42090
C14 C 0.7945(2) 0.3409(2) 0.3575(2)
C15 C 0.7849(3) 0.3914(3) 0.3886(3)
H9 H 0.81620 0.41380 0.40170
C16 C 0.7281(3) 0.4085(3) 0.4002(3)
H10 H 0.72140 0.44280 0.42110
C17 C 0.6823(3) 0.3766(4) 0.3819(3)
H11 H 0.64430 0.38900 0.38960
C18 C 0.6918(3) 0.3259(3) 0.3519(3)
H12 H 0.66020 0.30330 0.33990
C19 C 0.7475(2) 0.3081(3) 0.3392(2)
H13 H 0.75350 0.27380 0.31820
O4 O 0.9468(3) 0.4468(3) 0.0532(3)
O5 O 0.67147(15) 0.17147(15) 0.32853(15)
O6 O 1.0722(3) 0.1024(3) 0.2063(3)
O7 O 0.8971(4) 0.4923(4) -0.0301(7)
O8 O 1.0240(5) 0.4760(5) 0.5240(5)
O9 O 1.0068(4) 0.1194(5) 0.1086(4)
O2T O 0.90191(16) 0.44563(16) 0.16260(15)
C1T C 0.8797(3) 0.4898(2) 0.1888(3)
O1T O 0.90420(18) 0.53721(20) 0.1958(2)
C2T C 0.8178(2) 0.4828(2) 0.2091(2)
N1T N 0.78938(16) 0.43636(16) 0.18698(17)
O2V O 0.83740(16) 0.40191(16) 0.05437(15)
C1V C 0.8112(3) 0.3797(2) 0.0102(3)
O1V O 0.80420(18) 0.4042(2) -0.03721(20)
C2V C 0.7909(2) 0.3178(2) 0.0172(2)
N1V N 0.81302(16) 0.28938(16) 0.06364(17)
O3T O 0.74976(15) 0.33609(14) 0.15518(15)
C7T C 0.7127(2) 0.3694(2) 0.1763(2)
N2T N 0.65635(18) 0.35263(20) 0.17760(17)
C8T C 0.6082(2) 0.3930(2) 0.1850(2)
C9T C 0.5983(2) 0.4358(3) 0.1441(3)
H4T H 0.62210 0.43870 0.11120
C10T C 0.5532(3) 0.4742(4) 0.1519(3)
H5T H 0.54670 0.50340 0.12440
C11T C 0.5185(3) 0.4701(5) 0.1982(3)
H6T H 0.48830 0.49690 0.20290
C12T C 0.5264(3) 0.4265(4) 0.2401(3)
H7T H 0.50130 0.42380 0.27190
C13T C 0.5726(3) 0.3865(3) 0.2337(2)
H8T H 0.57910 0.35700 0.26090
C14T C 0.6425(2) 0.2945(2) 0.1591(2)
C15T C 0.6114(3) 0.2849(3) 0.1086(3)
H9T H 0.59830 0.31620 0.08620
C16T C 0.5998(3) 0.2281(3) 0.0915(3)
H10T H 0.57890 0.22140 0.05720
C17T C 0.6181(3) 0.1823(4) 0.1234(3)
H11T H 0.61040 0.14430 0.11100
C18T C 0.6481(3) 0.1918(3) 0.1741(3)
H12T H 0.66010 0.16020 0.19670
C19T C 0.6608(2) 0.2475(3) 0.1919(2)
H13T H 0.68180 0.25350 0.22620
C6T C 0.7341(2) 0.4252(2) 0.2029(2)
C5T C 0.7055(2) 0.4602(2) 0.2438(2)
C4T C 0.7368(3) 0.5071(3) 0.2675(3)
C3T C 0.7917(2) 0.5193(3) 0.2500(3)
H1T H 0.81160 0.55140 0.26500
H2T H 0.71930 0.53040 0.29580
H3T H 0.66710 0.45260 0.25500
O3V O 0.84482(15) 0.24976(14) 0.16391(15)
C7V C 0.8237(2) 0.2127(2) 0.1306(2)
N2V N 0.82240(18) 0.15635(20) 0.14737(17)
C8V C 0.8150(2) 0.1082(2) 0.1070(2)
C9V C 0.8559(2) 0.0983(3) 0.0642(3)
H4V H 0.88880 0.12210 0.06130
C10V C 0.8481(3) 0.0532(4) 0.0258(3)
H5V H 0.87560 0.04670 -0.00340
C11V C 0.8018(3) 0.0185(5) 0.0299(3)
H6V H 0.79710 -0.01170 0.00310
C12V C 0.7599(3) 0.0264(4) 0.0735(3)
H7V H 0.72810 0.00130 0.07620
C13V C 0.7663(3) 0.0726(3) 0.1135(2)
H8V H 0.73910 0.07910 0.14300
C14V C 0.8409(2) 0.1425(2) 0.2055(2)
C15V C 0.8914(3) 0.1114(3) 0.2151(3)
H9V H 0.91380 0.09830 0.18380
C16V C 0.9085(3) 0.0998(3) 0.2719(3)
H10V H 0.94280 0.07890 0.27860
C17V C 0.8766(3) 0.1181(4) 0.3177(3)
H11V H 0.88900 0.11040 0.35570
C18V C 0.8259(3) 0.1481(3) 0.3082(3)
H12V H 0.80330 0.16010 0.33980
C19V C 0.8081(2) 0.1608(3) 0.2525(2)
H13V H 0.77380 0.18180 0.24650
C6V C 0.7971(2) 0.2341(2) 0.0748(2)
C5V C 0.7562(2) 0.2055(2) 0.0398(2)
C4V C 0.7325(3) 0.2368(3) -0.0071(3)
C3V C 0.7500(2) 0.2917(3) -0.0193(3)
H1V H 0.73500 0.31160 -0.05140
H2V H 0.70420 0.21930 -0.03040
H3V H 0.74500 0.16710 0.04740
#END

data_CSD_CIF_AMOCOU
_audit_creation_date 2004-04-01
_audit_creation_method CSD-ConQuest-V1
_database_code_CSD AMOCOU
_database_code_depnum_ccdc_archive 'CCDC 211057'
_chemical_formula_sum 'C57 H63 Dy1 N6 O21'
_chemical_formula_moiety
;
C57 H39 Dy1 N6 O9,12(H2 O1)
;
_journal_coden_Cambridge 119
_journal_volume 687
_journal_year 2004
_journal_page_first 1
_journal_name_full 'J.Mol.Struct. '
loop_
_publ_author_name
"Bao-Li An"
"Meng-Lian Gong"
"Ming-Xing Li"
"Ji-Ming Zhang"
_chemical_name_systematic
;
tris(6-(Diphenylaminocarbonyl)-2-pyridinecarboxylato-N,O,O')-dysprosium(iii) 
dodecahydrate
;
_cell_volume  12037.014
_exptl_crystal_colour 'colorless'
_exptl_crystal_density_diffrn 1.442
_exptl_special_details
;
phosphorescent

;
_exptl_crystal_description 'block'
_diffrn_ambient_temperature 293
#These two values have been output from a single CSD field.
_refine_ls_R_factor_gt 0.0337
_refine_ls_wR_factor_gt 0.0337
_symmetry_cell_setting cubic
_symmetry_space_group_name_H-M 'P a -3'
_symmetry_Int_Tables_number 205
loop_
_symmetry_equiv_pos_site_id
_symmetry_equiv_pos_as_xyz
1 x,y,z
2 z,x,y
3 y,z,x
4 1/2+x,y,1/2-z
5 x,1/2-y,1/2+z
6 1/2-x,1/2+y,z
7 1/2-z,1/2+x,y
8 1/2+z,x,1/2-y
9 z,1/2-x,1/2+y
10 y,1/2-z,1/2+x
11 1/2-y,1/2+z,x
12 1/2+y,z,1/2-x
13 -x,-y,-z
14 -z,-x,-y
15 -y,-z,-x
16 -1/2-x,-y,-1/2+z
17 -x,-1/2+y,-1/2-z
18 -1/2+x,-1/2-y,-z
19 -1/2+z,-1/2-x,-y
20 -1/2-z,-x,-1/2+y
21 -z,-1/2+x,-1/2-y
22 -y,-1/2+z,-1/2-x
23 -1/2+y,-1/2-z,-x
24 -1/2-y,-z,-1/2+x
_cell_length_a 22.9178(8)
_cell_length_b 22.9178(8)
_cell_length_c 22.9178(8)
_cell_angle_alpha 90
_cell_angle_beta 90
_cell_angle_gamma 90
_cell_formula_units_Z 8
loop_
_atom_type_symbol
_atom_type_radius_bond
C 0.68
H 0.23
Dy 1.75
N 0.68
O 0.68
loop_
_atom_site_label
_atom_site_type_symbol
_atom_site_fract_x
_atom_site_fract_y
_atom_site_fract_z
Dy1 Dy 0.646556(7) -0.146556(7) 0.146556(7)
O1 O 0.69588(17) -0.09281(15) -0.03299(14)
O2 O 0.66390(12) -0.09715(12) 0.05875(12)
O3 O 0.65551(11) -0.24939(11) 0.16529(12)
N1 N 0.68648(13) -0.20977(13) 0.06532(13)
N2 N 0.67690(16) -0.34319(13) 0.14846(14)
C1 C 0.68862(19) -0.11876(19) 0.01347(18)
C2 C 0.70848(17) -0.18088(18) 0.01907(16)
C3 C 0.7487(2) -0.2069(2) -0.01852(18)
H1 H 0.76350 -0.18670 -0.05050
C4 C 0.7658(2) -0.2631(2) -0.0069(2)
H2 H 0.79350 -0.28090 -0.03050
C5 C 0.74213(19) -0.29359(19) 0.03977(18)
H3 H 0.75290 -0.33200 0.04700
C6 C 0.70210(16) -0.26542(16) 0.07531(16)
C7 C 0.67611(17) -0.28685(16) 0.13182(17)
C8 C 0.68456(19) -0.39138(16) 0.10781(17)
C9 C 0.6428(2) -0.4007(2) 0.06476(19)
H4 H 0.61010 -0.37690 0.06200
C10 C 0.6511(3) -0.4462(3) 0.0262(2)
H5 H 0.62380 -0.45290 -0.00310
C11 C 0.6983(3) -0.4810(2) 0.0304(2)
H6 H 0.70340 -0.51110 0.00360
C12 C 0.7395(3) -0.4727(2) 0.0744(2)
H7 H 0.77140 -0.49770 0.07740
C13 C 0.7329(2) -0.42679(19) 0.1138(2)
H8 H 0.76010 -0.42030 0.14310
C14 C 0.65822(19) -0.35700(17) 0.20677(18)
C15 C 0.6080(2) -0.3881(2) 0.2156(2)
H9 H 0.58570 -0.40090 0.18420
C16 C 0.5909(3) -0.4003(3) 0.2728(3)
H10 H 0.55660 -0.42110 0.27940
C17 C 0.6236(3) -0.3824(2) 0.3192(2)
H11 H 0.61170 -0.39100 0.35700
C18 C 0.6739(3) -0.3517(2) 0.3096(2)
H12 H 0.69610 -0.33930 0.34130
C19 C 0.6921(2) -0.33912(19) 0.2539(2)
H13 H 0.72660 -0.31880 0.24770
O4 O 0.67130(11) 0.17130(11) 0.32870(11)
O5 O 0.55551(19) -0.05551(19) 0.05551(19)
O6 O 0.6022(2) 0.2072(2) 0.4281(2)
O7 O 0.6028(4) -0.0065(4) -0.0293(6)
O8 O 0.5259(4) -0.5259(4) -0.0259(4)
O9 O 0.6215(4) 0.1101(3) 0.4945(3)
O2R O 0.55875(12) -0.16390(12) 0.09715(12)
C1R C 0.51347(19) -0.18862(19) 0.11876(18)
O1R O 0.46701(17) -0.19588(15) 0.09281(14)
C2R C 0.51907(17) -0.20848(18) 0.18088(16)
N1R N 0.56532(13) -0.18648(13) 0.20977(13)
O2W O 0.59715(12) -0.05875(12) 0.16390(12)
C1W C 0.61876(19) -0.01347(19) 0.18862(18)
O1W O 0.59281(17) 0.03299(15) 0.19588(14)
C2W C 0.68088(17) -0.01907(18) 0.20848(16)
N1W N 0.70977(13) -0.06532(13) 0.18648(13)
O3R O 0.66529(11) -0.15551(11) 0.24939(12)
C7R C 0.63182(17) -0.17611(16) 0.28685(17)
N2R N 0.64846(16) -0.17690(13) 0.34319(14)
C8R C 0.60781(19) -0.18456(16) 0.39138(17)
C9R C 0.56476(20) -0.1428(2) 0.40070(19)
H4R H 0.56200 -0.11010 0.37690
C10R C 0.5262(3) -0.1511(3) 0.4462(2)
H5R H 0.49690 -0.12380 0.45290
C11R C 0.5304(3) -0.1983(2) 0.4810(2)
H6R H 0.50360 -0.20340 0.51110
C12R C 0.5744(3) -0.2395(2) 0.4727(2)
H7R H 0.57740 -0.27140 0.49770
C13R C 0.6138(2) -0.23290(19) 0.42679(20)
H8R H 0.64310 -0.26010 0.42030
C14R C 0.70677(19) -0.15822(17) 0.35700(18)
C15R C 0.7156(2) -0.1080(2) 0.3881(2)
H9R H 0.68420 -0.08570 0.40090
C16R C 0.7728(3) -0.0909(3) 0.4003(3)
H10R H 0.77940 -0.05660 0.42110
C17R C 0.8192(3) -0.1236(2) 0.3824(2)
H11R H 0.85700 -0.11170 0.39100
C18R C 0.8096(3) -0.1739(2) 0.3517(2)
H12R H 0.84130 -0.19610 0.33930
C19R C 0.7539(2) -0.19210(19) 0.33912(20)
H13R H 0.74770 -0.22660 0.31880
C6R C 0.57531(16) -0.20210(16) 0.26542(16)
C5R C 0.53977(19) -0.24213(19) 0.29359(18)
C4R C 0.4931(2) -0.2658(2) 0.2631(2)
C3R C 0.48148(20) -0.2487(2) 0.20690(18)
H1R H 0.44950 -0.26350 0.18670
H2R H 0.46950 -0.29350 0.28090
H3R H 0.54700 -0.25290 0.33200
O3W O 0.74939(11) -0.16529(11) 0.15551(12)
C7W C 0.78685(17) -0.13182(16) 0.17611(17)
N2W N 0.84319(16) -0.14846(13) 0.17690(14)
C8W C 0.89138(19) -0.10781(16) 0.18456(17)
C9W C 0.9007(2) -0.06476(20) 0.14280(19)
H4W H 0.87690 -0.06200 0.11010
C10W C 0.9462(3) -0.0262(3) 0.1511(2)
H5W H 0.95290 0.00310 0.12380
C11W C 0.9810(3) -0.0304(2) 0.1983(2)
H6W H 1.01110 -0.00360 0.20340
C12W C 0.9727(3) -0.0744(2) 0.2395(2)
H7W H 0.99770 -0.07740 0.27140
C13W C 0.92679(20) -0.11380(19) 0.2329(2)
H8W H 0.92030 -0.14310 0.26010
C14W C 0.85700(19) -0.20677(17) 0.15822(18)
C15W C 0.8881(2) -0.2156(2) 0.1080(2)
H9W H 0.90090 -0.18420 0.08570
C16W C 0.9003(3) -0.2728(3) 0.0909(3)
H10W H 0.92110 -0.27940 0.05660
C17W C 0.8824(3) -0.3192(2) 0.1236(2)
H11W H 0.89100 -0.35700 0.11170
C18W C 0.8517(3) -0.3096(2) 0.1739(2)
H12W H 0.83930 -0.34130 0.19610
C19W C 0.83912(20) -0.25390(19) 0.1921(2)
H13W H 0.81880 -0.24770 0.22660
C6W C 0.76542(16) -0.07531(16) 0.20210(16)
C5W C 0.79359(19) -0.03977(19) 0.24213(18)
C4W C 0.7631(2) 0.0069(2) 0.2658(2)
C3W C 0.7069(2) 0.01852(20) 0.24870(18)
H1W H 0.68670 0.05050 0.26350
H2W H 0.78090 0.03050 0.29350
H3W H 0.83200 -0.04700 0.25290
#END

data_CSD_CIF_AVATOH
_audit_creation_date 2011-08-30
_audit_creation_method CSD-ConQuest-V1
_database_code_CSD AVATOH
_database_code_depnum_ccdc_archive 'CCDC 802813'
_chemical_formula_sum 'C72 H102 O7 Ti2'
_chemical_formula_moiety
;
C72 H102 O7 Ti2
;
_journal_coden_Cambridge 1295
_journal_volume 14
_journal_year 2011
_journal_page_first 531
_journal_name_full 'Inorg.Chem.Commun. '
loop_
_publ_author_name
"B.J.Boro"
"R.Lansing"
"K.I.Goldberg"
"R.A.Kemp"
_chemical_name_systematic
;
(\m~2~-oxo)-hexakis(2,6-diisopropylphenolato)-titanium(iv)
;
_cell_volume   6992.305
_exptl_crystal_colour 'yellow'
_exptl_crystal_density_diffrn 1.116
_exptl_crystal_description 'prism'
_diffrn_ambient_temperature 228
#These two values have been output from a single CSD field.
_refine_ls_R_factor_gt 0.0488
_refine_ls_wR_factor_gt 0.0488
_symmetry_cell_setting cubic
_symmetry_space_group_name_H-M 'P a -3'
_symmetry_Int_Tables_number 205
loop_
_symmetry_equiv_pos_site_id
_symmetry_equiv_pos_as_xyz
1 x,y,z
2 1/2-x,-y,1/2+z
3 -x,1/2+y,1/2-z
4 1/2+x,1/2-y,-z
5 z,x,y
6 1/2+z,1/2-x,-y
7 1/2-z,-x,1/2+y
8 -z,1/2+x,1/2-y
9 y,z,x
10 -y,1/2+z,1/2-x
11 1/2+y,1/2-z,-x
12 1/2-y,-z,1/2+x
13 -x,-y,-z
14 -1/2+x,y,-1/2-z
15 x,-1/2-y,-1/2+z
16 -1/2-x,-1/2+y,z
17 -z,-x,-y
18 -1/2-z,-1/2+x,y
19 -1/2+z,x,-1/2-y
20 z,-1/2-x,-1/2+y
21 -y,-z,-x
22 y,-1/2-z,-1/2+x
23 -1/2-y,-1/2+z,x
24 -1/2+y,z,-1/2-x
_cell_length_a 19.1223(5)
_cell_length_b 19.1223(5)
_cell_length_c 19.1223(5)
_cell_angle_alpha 90
_cell_angle_beta 90
_cell_angle_gamma 90
_cell_formula_units_Z 4
loop_
_atom_type_symbol
_atom_type_radius_bond
C 0.68
H 0.23
O 0.68
Ti 1.49
loop_
_atom_site_label
_atom_site_type_symbol
_atom_site_fract_x
_atom_site_fract_y
_atom_site_fract_z
Ti1 Ti 0.054657(19) 0.054657(19) 0.054657(19)
O1 O 0.00000 0.00000 0.00000
O2 O 0.00062(8) 0.10274(8) 0.11329(8)
C1 C -0.04054(11) 0.14282(12) 0.15625(12)
C2 C -0.08841(12) 0.10899(14) 0.19960(12)
C3 C -0.13096(15) 0.15167(18) 0.24079(15)
H1 H -0.16440 0.13090 0.27020
C4 C -0.12534(16) 0.22294(18) 0.23949(17)
H2 H -0.15450 0.25030 0.26800
C5 C -0.07768(16) 0.25435(15) 0.19702(16)
H3 H -0.07460 0.30340 0.19660
C6 C -0.03335(13) 0.21564(13) 0.15425(13)
C7 C 0.02091(16) 0.24986(14) 0.10913(16)
H4 H 0.03260 0.21640 0.07140
C8 C 0.0866(3) 0.2616(4) 0.1510(3)
H5 H 0.10110 0.21780 0.17220
H6 H 0.07760 0.29580 0.18730
H7 H 0.12330 0.27850 0.12040
C9 C -0.0050(3) 0.3165(2) 0.0741(3)
H8 H -0.04630 0.30620 0.04660
H9 H 0.03130 0.33490 0.04390
H10 H -0.01650 0.35090 0.10960
C10 C -0.09576(14) 0.03047(15) 0.19994(14)
H11 H -0.04920 0.01060 0.18910
C11 C -0.1184(2) 0.0008(2) 0.27090(18)
H12 H -0.08600 0.01620 0.30680
H13 H -0.11850 -0.04980 0.26880
H14 H -0.16500 0.01740 0.28200
C12 C -0.14562(17) 0.00631(17) 0.14320(16)
H15 H -0.13060 0.02490 0.09840
H16 H -0.19240 0.02300 0.15360
H17 H -0.14580 -0.04440 0.14130
Ti1L Ti -0.054657(19) -0.054657(19) -0.054657(19)
O2L O -0.00062(8) -0.10274(8) -0.11329(8)
O2P O -0.11329(8) -0.00062(8) -0.10274(8)
O2T O -0.10274(8) -0.11329(8) -0.00062(8)
O2D O 0.11329(8) 0.00062(8) 0.10274(8)
O2H O 0.10274(8) 0.11329(8) 0.00062(8)
C1L C 0.04054(11) -0.14282(12) -0.15625(12)
C1P C -0.15625(11) 0.04054(12) -0.14282(12)
C1T C -0.14282(11) -0.15625(12) 0.04054(12)
C1D C 0.15625(11) -0.04054(12) 0.14282(12)
C1H C 0.14282(11) 0.15625(12) -0.04054(12)
C2L C 0.08841(12) -0.10899(14) -0.19960(12)
C2P C -0.19960(12) 0.08841(14) -0.10899(12)
C2T C -0.10899(12) -0.19960(14) 0.08841(12)
C2D C 0.19960(12) -0.08841(14) 0.10899(12)
C2H C 0.10899(12) 0.19960(14) -0.08841(12)
C3L C 0.13096(15) -0.15167(18) -0.24079(15)
C3P C -0.24079(15) 0.13096(18) -0.15167(15)
C3T C -0.15167(15) -0.24079(18) 0.13096(15)
C3D C 0.24079(15) -0.13096(18) 0.15167(15)
C3H C 0.15167(15) 0.24079(18) -0.13096(15)
H1L H 0.16440 -0.13090 -0.27020
H1P H -0.27020 0.16440 -0.13090
H1T H -0.13090 -0.27020 0.16440
H1D H 0.27020 -0.16440 0.13090
H1H H 0.13090 0.27020 -0.16440
C4L C 0.12534(16) -0.22294(18) -0.23949(17)
C4P C -0.23949(16) 0.12534(18) -0.22294(17)
C4T C -0.22294(16) -0.23949(18) 0.12534(17)
C4D C 0.23949(16) -0.12534(18) 0.22294(17)
C4H C 0.22294(16) 0.23949(18) -0.12534(17)
H2L H 0.15450 -0.25030 -0.26800
H2P H -0.26800 0.15450 -0.25030
H2T H -0.25030 -0.26800 0.15450
H2D H 0.26800 -0.15450 0.25030
H2H H 0.25030 0.26800 -0.15450
C5L C 0.07768(16) -0.25435(15) -0.19702(16)
C5P C -0.19702(16) 0.07768(15) -0.25435(16)
C5T C -0.25435(16) -0.19702(15) 0.07768(16)
C5D C 0.19702(16) -0.07768(15) 0.25435(16)
C5H C 0.25435(16) 0.19702(15) -0.07768(16)
H3L H 0.07460 -0.30340 -0.19660
H3P H -0.19660 0.07460 -0.30340
H3T H -0.30340 -0.19660 0.07460
H3D H 0.19660 -0.07460 0.30340
H3H H 0.30340 0.19660 -0.07460
C6L C 0.03335(13) -0.21564(13) -0.15425(13)
C6P C -0.15425(13) 0.03335(13) -0.21564(13)
C6T C -0.21564(13) -0.15425(13) 0.03335(13)
C6D C 0.15425(13) -0.03335(13) 0.21564(13)
C6H C 0.21564(13) 0.15425(13) -0.03335(13)
C7L C -0.02091(16) -0.24986(14) -0.10913(16)
C7P C -0.10913(16) -0.02091(14) -0.24986(16)
C7T C -0.24986(16) -0.10913(14) -0.02091(16)
C7D C 0.10913(16) 0.02091(14) 0.24986(16)
C7H C 0.24986(16) 0.10913(14) 0.02091(16)
H4L H -0.03260 -0.21640 -0.07140
H4P H -0.07140 -0.03260 -0.21640
H4T H -0.21640 -0.07140 -0.03260
H4D H 0.07140 0.03260 0.21640
H4H H 0.21640 0.07140 0.03260
C8L C -0.0866(3) -0.2616(4) -0.1510(3)
C8P C -0.1510(3) -0.0866(4) -0.2616(3)
C8T C -0.2616(3) -0.1510(4) -0.0866(3)
C8D C 0.1510(3) 0.0866(4) 0.2616(3)
C8H C 0.2616(3) 0.1510(4) 0.0866(3)
H5L H -0.10110 -0.21780 -0.17220
H5P H -0.17220 -0.10110 -0.21780
H5T H -0.21780 -0.17220 -0.10110
H5D H 0.17220 0.10110 0.21780
H5H H 0.21780 0.17220 0.10110
H6L H -0.07760 -0.29580 -0.18730
H6P H -0.18730 -0.07760 -0.29580
H6T H -0.29580 -0.18730 -0.07760
H6D H 0.18730 0.07760 0.29580
H6H H 0.29580 0.18730 0.07760
H7L H -0.12330 -0.27850 -0.12040
H7P H -0.12040 -0.12330 -0.27850
H7T H -0.27850 -0.12040 -0.12330
H7D H 0.12040 0.12330 0.27850
H7H H 0.27850 0.12040 0.12330
C9L C 0.0050(3) -0.3165(2) -0.0741(3)
C9P C -0.0741(3) 0.0050(2) -0.3165(3)
C9T C -0.3165(3) -0.0741(2) 0.0050(3)
C9D C 0.0741(3) -0.0050(2) 0.3165(3)
C9H C 0.3165(3) 0.0741(2) -0.0050(3)
H8L H 0.04630 -0.30620 -0.04660
H8P H -0.04660 0.04630 -0.30620
H8T H -0.30620 -0.04660 0.04630
H8D H 0.04660 -0.04630 0.30620
H8H H 0.30620 0.04660 -0.04630
H9L H -0.03130 -0.33490 -0.04390
H9P H -0.04390 -0.03130 -0.33490
H9T H -0.33490 -0.04390 -0.03130
H9D H 0.04390 0.03130 0.33490
H9H H 0.33490 0.04390 0.03130
H10L H 0.01650 -0.35090 -0.10960
H10P H -0.10960 0.01650 -0.35090
H10T H -0.35090 -0.10960 0.01650
H10D H 0.10960 -0.01650 0.35090
H10H H 0.35090 0.10960 -0.01650
C10L C 0.09576(14) -0.03047(15) -0.19994(14)
C10P C -0.19994(14) 0.09576(15) -0.03047(14)
C10T C -0.03047(14) -0.19994(15) 0.09576(14)
C10D C 0.19994(14) -0.09576(15) 0.03047(14)
C10H C 0.03047(14) 0.19994(15) -0.09576(14)
H11L H 0.04920 -0.01060 -0.18910
H11P H -0.18910 0.04920 -0.01060
H11T H -0.01060 -0.18910 0.04920
H11D H 0.18910 -0.04920 0.01060
H11H H 0.01060 0.18910 -0.04920
C11L C 0.1184(2) -0.0008(2) -0.27090(18)
C11P C -0.2709(2) 0.1184(2) -0.00080(18)
C11T C -0.0008(2) -0.2709(2) 0.11840(18)
C11D C 0.2709(2) -0.1184(2) 0.00080(18)
C11H C 0.0008(2) 0.2709(2) -0.11840(18)
H12L H 0.08600 -0.01620 -0.30680
H12P H -0.30680 0.08600 -0.01620
H12T H -0.01620 -0.30680 0.08600
H12D H 0.30680 -0.08600 0.01620
H12H H 0.01620 0.30680 -0.08600
H13L H 0.11850 0.04980 -0.26880
H13P H -0.26880 0.11850 0.04980
H13T H 0.04980 -0.26880 0.11850
H13D H 0.26880 -0.11850 -0.04980
H13H H -0.04980 0.26880 -0.11850
H14L H 0.16500 -0.01740 -0.28200
H14P H -0.28200 0.16500 -0.01740
H14T H -0.01740 -0.28200 0.16500
H14D H 0.28200 -0.16500 0.01740
H14H H 0.01740 0.28200 -0.16500
C12L C 0.14562(17) -0.00631(17) -0.14320(16)
C12P C -0.14320(17) 0.14562(17) -0.00631(16)
C12T C -0.00631(17) -0.14320(17) 0.14562(16)
C12D C 0.14320(17) -0.14562(17) 0.00631(16)
C12H C 0.00631(17) 0.14320(17) -0.14562(16)
H15L H 0.13060 -0.02490 -0.09840
H15P H -0.09840 0.13060 -0.02490
H15T H -0.02490 -0.09840 0.13060
H15D H 0.09840 -0.13060 0.02490
H15H H 0.02490 0.09840 -0.13060
H16L H 0.19240 -0.02300 -0.15360
H16P H -0.15360 0.19240 -0.02300
H16T H -0.02300 -0.15360 0.19240
H16D H 0.15360 -0.19240 0.02300
H16H H 0.02300 0.15360 -0.19240
H17L H 0.14580 0.04440 -0.14130
H17P H -0.14130 0.14580 0.04440
H17T H 0.04440 -0.14130 0.14580
H17D H 0.14130 -0.14580 -0.04440
H17H H -0.04440 0.14130 -0.14580
#END

data_CSD_CIF_AWEJEU
_audit_creation_date 2021-06-17
_audit_creation_method CSD-ConQuest-V1
_database_code_CSD AWEJEU
_database_code_depnum_ccdc_archive 'CCDC 2090637'
_chemical_formula_sum 'H6 Cl2 N2'
_chemical_formula_moiety
;
H6 N2 2+,2(Cl1 1-)
;
_journal_coden_Cambridge 1078
_journal_year 2021
_journal_name_full 'CSD Communication(Private Communication) '
loop_
_publ_author_name
"M.Bolte"
_chemical_name_systematic
;
diazanediium dichloride
;
_cell_volume    482.554
_exptl_crystal_colour 'colorless'
_exptl_crystal_density_diffrn 1.445
_exptl_special_details
;
We calculate void space in the structure

;
_exptl_crystal_description 'block'
_diffrn_ambient_temperature 173
#These two values have been output from a single CSD field.
_refine_ls_R_factor_gt 0.0254
_refine_ls_wR_factor_gt 0.0254
_symmetry_cell_setting cubic
_symmetry_space_group_name_H-M 'P a -3'
_symmetry_Int_Tables_number 205
loop_
_symmetry_equiv_pos_site_id
_symmetry_equiv_pos_as_xyz
1 x,y,z
2 1/2-x,-y,1/2+z
3 -x,1/2+y,1/2-z
4 1/2+x,1/2-y,-z
5 z,x,y
6 1/2+z,1/2-x,-y
7 1/2-z,-x,1/2+y
8 -z,1/2+x,1/2-y
9 y,z,x
10 -y,1/2+z,1/2-x
11 1/2+y,1/2-z,-x
12 1/2-y,-z,1/2+x
13 -x,-y,-z
14 -1/2+x,y,-1/2-z
15 x,-1/2-y,-1/2+z
16 -1/2-x,-1/2+y,z
17 -z,-x,-y
18 -1/2-z,-1/2+x,y
19 -1/2+z,x,-1/2-y
20 z,-1/2-x,-1/2+y
21 -y,-z,-x
22 y,-1/2-z,-1/2+x
23 -1/2-y,-1/2+z,x
24 -1/2+y,z,-1/2-x
_cell_length_a 7.8436(16)
_cell_length_b 7.8436(16)
_cell_length_c 7.8436(16)
_cell_angle_alpha 90
_cell_angle_beta 90
_cell_angle_gamma 90
_cell_formula_units_Z 4
loop_
_atom_type_symbol
_atom_type_radius_bond
H 0.23
Cl 0.99
N 0.68
loop_
_atom_site_label
_atom_site_type_symbol
_atom_site_fract_x
_atom_site_fract_y
_atom_site_fract_z
Cl1 Cl 0.72176(4) 0.22176(4) 0.27824(4)
N1 N 0.44708(11) 0.44708(11) 0.44708(11)
H1 H 0.515(2) 0.375(2) 0.396(2)
H1D H 0.396(2) 0.515(2) 0.375(2)
H1H H 0.375(2) 0.396(2) 0.515(2)
N1L N 0.55292(11) 0.55292(11) 0.55292(11)
H1L H 0.485(2) 0.625(2) 0.604(2)
H1P H 0.604(2) 0.485(2) 0.625(2)
H1T H 0.625(2) 0.604(2) 0.485(2)
#END

data_CSD_CIF_BARCAZ
_audit_creation_date 2003-09-24
_audit_creation_method CSD-ConQuest-V1
_database_code_CSD BARCAZ
_database_code_depnum_ccdc_archive 'CCDC 203290'
_chemical_formula_sum 'C57 H42 Ge1 Na1 O3'
_chemical_formula_moiety
;
C54 H39 Ge1 Na1 O3,0.5(C6 H6)
;
_journal_coden_Cambridge 222
_journal_year 2003
_journal_page_first 1795
_journal_name_full 'Dalton Trans. '
loop_
_publ_author_name
"C.S.Weinert"
"P.E.Fanwick"
"I.P.Rothwell"
_chemical_name_systematic
;
tris(\m~2~-\h^2^-2,6-Diphenylphenolato)-germanium(ii)-sodium benzene solvate
;
_cell_volume   8886.078
_exptl_crystal_colour 'colorless'
_exptl_crystal_density_diffrn 1.3
_exptl_crystal_description 'chunk'
_diffrn_ambient_temperature 150
#These two values have been output from a single CSD field.
_refine_ls_R_factor_gt 0.046
_refine_ls_wR_factor_gt 0.046
_symmetry_cell_setting cubic
_symmetry_space_group_name_H-M 'P a -3'
_symmetry_Int_Tables_number 205
loop_
_symmetry_equiv_pos_site_id
_symmetry_equiv_pos_as_xyz
1 x,y,z
2 z,x,y
3 y,z,x
4 1/2+x,y,1/2-z
5 x,1/2-y,1/2+z
6 1/2-x,1/2+y,z
7 1/2-z,1/2+x,y
8 1/2+z,x,1/2-y
9 z,1/2-x,1/2+y
10 y,1/2-z,1/2+x
11 1/2-y,1/2+z,x
12 1/2+y,z,1/2-x
13 -x,-y,-z
14 -z,-x,-y
15 -y,-z,-x
16 -1/2-x,-y,-1/2+z
17 -x,-1/2+y,-1/2-z
18 -1/2+x,-1/2-y,-z
19 -1/2+z,-1/2-x,-y
20 -1/2-z,-x,-1/2+y
21 -z,-1/2+x,-1/2-y
22 -y,-1/2+z,-1/2-x
23 -1/2+y,-1/2-z,-x
24 -1/2-y,-z,-1/2+x
_cell_length_a 20.7127(3)
_cell_length_b 20.7127(3)
_cell_length_c 20.7127(3)
_cell_angle_alpha 90
_cell_angle_beta 90
_cell_angle_gamma 90
_cell_formula_units_Z 8
loop_
_atom_type_symbol
_atom_type_radius_bond
C 0.68
H 0.23
Ge 1.17
Na 2.03
O 0.67
loop_
_atom_site_label
_atom_site_type_symbol
_atom_site_fract_x
_atom_site_fract_y
_atom_site_fract_z
Ge1 Ge 0.807999(12) 0.192001(12) 0.692001(12)
Na1 Na 0.88996(4) 0.11004(4) 0.61004(4)
O1 O 0.81315(7) 0.09857(8) 0.68980(7)
C1 C 0.80329(12) 0.06426(11) 0.74471(11)
C2 C 0.85306(12) 0.02490(12) 0.76848(11)
C3 C 0.84386(15) -0.00857(14) 0.82640(13)
C4 C 0.78607(16) -0.00401(16) 0.85948(14)
C5 C 0.73732(15) 0.03441(15) 0.83590(14)
C6 C 0.74433(12) 0.06870(13) 0.77824(12)
C7 C 0.91469(12) 0.01863(11) 0.73236(11)
C8 C 0.91558(13) -0.00551(12) 0.66939(12)
C9 C 0.97339(13) -0.01151(12) 0.63589(13)
C10 C 1.03105(13) 0.00580(13) 0.66483(15)
C11 C 1.03081(14) 0.02913(13) 0.72701(15)
C12 C 0.97343(13) 0.03541(12) 0.76033(13)
C13 C 0.69110(12) 0.11018(13) 0.75404(14)
C14 C 0.66159(15) 0.15520(16) 0.79472(17)
C15 C 0.61252(17) 0.19485(18) 0.7707(2)
C16 C 0.59267(17) 0.19049(17) 0.7070(2)
C17 C 0.62187(15) 0.14674(17) 0.66719(18)
C18 C 0.67009(13) 0.10643(15) 0.68988(14)
C19 C 0.9891(2) 0.0510(2) 0.9598(2)
H1 H 0.87760 -0.03470 0.84320
H2 H 0.78000 -0.02740 0.89850
H3 H 0.69800 0.03770 0.85930
H4 H 0.8763(12) -0.0159(12) 0.6517(14)
H5 H 0.97330 -0.02760 0.59290
H6 H 1.07060 0.00160 0.64190
H7 H 1.07030 0.04100 0.74710
H8 H 0.97410 0.05150 0.80330
H9 H 0.67480 0.15880 0.83850
H10 H 0.59250 0.22530 0.79850
H11 H 0.55920 0.21760 0.69120
H12 H 0.60890 0.14400 0.62330
H13 H 0.68920 0.07580 0.66160
H14 H 0.98160 0.08660 0.93190
O1S O 0.81020(7) 0.18685(8) 0.59857(7)
O1U O 0.90143(7) 0.18980(8) 0.68685(7)
C1U C 0.93574(12) 0.24471(11) 0.69671(11)
C2U C 0.97510(12) 0.26848(12) 0.64694(11)
C3U C 1.00857(15) 0.32640(14) 0.65614(13)
C4U C 1.00401(16) 0.35948(16) 0.71393(14)
C5U C 0.96559(15) 0.33590(15) 0.76268(14)
C6U C 0.93130(12) 0.27824(13) 0.75567(12)
C13U C 0.88982(12) 0.25404(13) 0.80890(14)
C14U C 0.84480(15) 0.29472(16) 0.83841(17)
C15U C 0.80515(17) 0.27070(18) 0.88748(20)
C16U C 0.80951(17) 0.20700(17) 0.90733(20)
C17U C 0.85326(15) 0.16719(17) 0.87813(18)
C18U C 0.89357(13) 0.18988(15) 0.82991(14)
H13U H 0.92420 0.16160 0.81080
H12U H 0.85600 0.12330 0.89110
H11U H 0.78240 0.19120 0.94080
H10U H 0.77470 0.29850 0.90750
H9U H 0.84120 0.33850 0.82520
H3U H 0.96230 0.35930 0.80200
H2U H 1.02740 0.39850 0.72000
H1U H 1.03470 0.34320 0.62240
C7U C 0.98137(12) 0.23236(11) 0.58531(11)
C8U C 1.00551(13) 0.16939(12) 0.58442(12)
C8S C 0.83061(13) 0.08442(12) 0.49449(12)
C7S C 0.76764(12) 0.08531(11) 0.51863(11)
C2S C 0.73152(12) 0.14694(12) 0.52490(11)
C1S C 0.75529(12) 0.19671(11) 0.56426(11)
C6S C 0.72176(12) 0.25567(13) 0.56870(12)
C5S C 0.66410(15) 0.26268(15) 0.53441(14)
C4S C 0.64052(16) 0.21393(16) 0.49599(14)
C3S C 0.67360(15) 0.15614(14) 0.49143(13)
H1S H 0.65680 0.12240 0.46530
H2S H 0.60150 0.22000 0.47260
H3S H 0.64070 0.30200 0.53770
C13S C 0.74596(12) 0.30890(13) 0.61018(14)
C14S C 0.70528(15) 0.33841(16) 0.65520(17)
C15S C 0.72930(17) 0.38748(18) 0.69485(20)
C16S C 0.79300(17) 0.40733(17) 0.69049(20)
C17S C 0.83281(15) 0.37813(17) 0.64674(18)
C18S C 0.81012(13) 0.32991(15) 0.60643(14)
H13S H 0.83840 0.31080 0.57580
H12S H 0.87670 0.39110 0.64400
H11S H 0.80880 0.44080 0.71760
H10S H 0.70150 0.40750 0.72530
H9S H 0.66150 0.32520 0.65880
C12S C 0.73967(13) 0.02657(12) 0.53541(13)
C11S C 0.77299(14) -0.03081(13) 0.52913(15)
C10S C 0.83517(13) -0.03105(13) 0.50580(15)
C9S C 0.86411(13) 0.02661(12) 0.48849(13)
C9U C 1.01151(13) 0.13589(12) 0.52661(13)
H4U H 1.0159(12) 0.1517(12) 0.6237(14)
C10U C 0.99420(13) 0.16483(13) 0.46895(15)
C11U C 0.97087(14) 0.22701(13) 0.46919(15)
C12U C 0.96459(13) 0.26033(12) 0.52657(13)
H8U H 0.94850 0.30330 0.52590
H7U H 0.95900 0.24710 0.42970
H6U H 0.99840 0.14190 0.42940
H5U H 1.02760 0.09290 0.52670
H4S H 0.8483(12) 0.1237(12) 0.4841(14)
H5S H 0.90710 0.02670 0.47240
H6S H 0.85810 -0.07060 0.50160
H7S H 0.75290 -0.07030 0.54100
H8S H 0.69670 0.02590 0.55150
C19M C 1.0402(2) 0.0109(2) 0.9490(2)
C19B C 1.0510(2) -0.0402(2) 0.9891(2)
C19L C 1.0109(2) -0.0510(2) 1.0402(2)
C19A C 0.9598(2) -0.0109(2) 1.0510(2)
C19N C 0.9490(2) 0.0402(2) 1.0109(2)
H14N H 0.91340 0.06810 1.01840
H14A H 0.93190 -0.01840 1.08660
H14L H 1.01840 -0.08660 1.06810
H14B H 1.08660 -0.06810 0.98160
H14M H 1.06810 0.01840 0.91340
#END

data_CSD_CIF_BATLEN
_audit_creation_date 1982-05-11
_audit_creation_method CSD-ConQuest-V1
_database_code_CSD BATLEN
_database_code_depnum_ccdc_archive 'CCDC 1106398'
_chemical_formula_sum 'C6 H19 Al2 Na1'
_chemical_formula_moiety
;
C6 H19 Al2 1-,Na1 1+
;
_journal_coden_Cambridge 4
_journal_volume 103
_journal_year 1981
_journal_page_first 6787
_journal_name_full 'J.Am.Chem.Soc. '
loop_
_publ_author_name
"J.L.Atwood"
"D.C.Hrncir"
"R.D.Rogers"
"J.A.K.Howard"
_chemical_name_systematic
;
Sodium (\m~2~-hydrido)-bis(trimethyl-aluminium)
;
_chemical_name_common
;
Teaching Subset: Fundamental Chemistry
;
_cell_volume   1419.656
_exptl_crystal_density_diffrn 0.79
_diffrn_ambient_temperature 200
#These two values have been output from a single CSD field.
_refine_ls_R_factor_gt 0.048
_refine_ls_wR_factor_gt 0.048
_symmetry_cell_setting cubic
_symmetry_space_group_name_H-M 'P a 3'
_symmetry_Int_Tables_number 205
loop_
_symmetry_equiv_pos_site_id
_symmetry_equiv_pos_as_xyz
1 x,y,z
2 z,x,y
3 y,z,x
4 -x,1/2+y,1/2-z
5 -z,1/2+x,1/2-y
6 -y,1/2+z,1/2-x
7 1/2-x,-y,1/2+z
8 1/2-z,-x,1/2+y
9 1/2-y,-z,1/2+x
10 1/2+x,1/2-y,-z
11 1/2+z,1/2-x,-y
12 1/2+y,1/2-z,-x
13 -x,-y,-z
14 -z,-x,-y
15 -y,-z,-x
16 x,-1/2-y,-1/2+z
17 z,-1/2-x,-1/2+y
18 y,-1/2-z,-1/2+x
19 -1/2+x,y,-1/2-z
20 -1/2+z,x,-1/2-y
21 -1/2+y,z,-1/2-x
22 -1/2-x,-1/2+y,z
23 -1/2-z,-1/2+x,y
24 -1/2-y,-1/2+z,x
_cell_length_a 11.239(4)
_cell_length_b 11.239(4)
_cell_length_c 11.239(4)
_cell_angle_alpha 90
_cell_angle_beta 90
_cell_angle_gamma 90
_cell_formula_units_Z 4
loop_
_atom_type_symbol
_atom_type_radius_bond
C 0.68
H 0.23
Al 1.35
Na 0.97
loop_
_atom_site_label
_atom_site_type_symbol
_atom_site_fract_x
_atom_site_fract_y
_atom_site_fract_z
Na1 Na 0.00000 0.00000 0.00000
Al1 Al 0.41530 0.41530 0.41530
C1 C 0.25290 0.45720 0.46400
H1 H 0.50000 0.50000 0.50000
H2 H 0.21920 0.53570 0.43200
H3 H 0.24210 0.43010 0.54920
H4 H 0.18850 0.39790 0.41170
C1A C 0.46400 0.25290 0.45720
C1B C 0.45720 0.46400 0.25290
Al1L Al 0.58470 0.58470 0.58470
H2A H 0.43200 0.21920 0.53570
H3A H 0.54920 0.24210 0.43010
H4A H 0.41170 0.18850 0.39790
H2B H 0.53570 0.43200 0.21920
H3B H 0.43010 0.54920 0.24210
H4B H 0.39790 0.41170 0.18850
C1L C 0.74710 0.54280 0.53600
C1M C 0.53600 0.74710 0.54280
C1N C 0.54280 0.53600 0.74710
H2L H 0.78080 0.46430 0.56800
H3L H 0.75790 0.56990 0.45080
H4L H 0.81150 0.60210 0.58830
H2M H 0.56800 0.78080 0.46430
H3M H 0.45080 0.75790 0.56990
H4M H 0.58830 0.81150 0.60210
H2N H 0.46430 0.56800 0.78080
H3N H 0.56990 0.45080 0.75790
H4N H 0.60210 0.58830 0.81150
#END

data_CSD_CIF_BEJSAK
_audit_creation_date 1982-11-15
_audit_creation_method CSD-ConQuest-V1
_database_code_CSD BEJSAK
_database_code_depnum_ccdc_archive 'CCDC 1108169'
_chemical_formula_sum 'C6 H20 Cl6 N2 Te1'
_chemical_formula_moiety
;
2(C3 H10 N1 1+),Cl6 Te1 2-
;
_journal_coeditor_code "IUCr A21141"
_journal_coden_Cambridge 107
_journal_volume 38
_journal_year 1982
_journal_page_first 1308
_journal_name_full 'Acta Crystallogr.,Sect.B:Struct.Crystallogr.Cryst.Chem. '
loop_
_publ_author_name
"M.H.B.Ghozlen"
"J.W.Bats"
_chemical_name_systematic
;
bis(Trimethylammonium) hexachloro-tellurium(iv)
;
_cell_volume   1846.832
_exptl_crystal_colour 'yellow'
_exptl_crystal_density_diffrn 1.656
_diffrn_ambient_temperature ?
_diffrn_special_details
;
The study was carried out at room temperature,in the range 283-303K

;
#These two values have been output from a single CSD field.
_refine_ls_R_factor_gt 0.023
_refine_ls_wR_factor_gt 0.023
_symmetry_cell_setting cubic
_symmetry_space_group_name_H-M 'P a 3'
_symmetry_Int_Tables_number 205
loop_
_symmetry_equiv_pos_site_id
_symmetry_equiv_pos_as_xyz
1 x,y,z
2 z,x,y
3 y,z,x
4 -x,1/2+y,1/2-z
5 -z,1/2+x,1/2-y
6 -y,1/2+z,1/2-x
7 1/2-x,-y,1/2+z
8 1/2-z,-x,1/2+y
9 1/2-y,-z,1/2+x
10 1/2+x,1/2-y,-z
11 1/2+z,1/2-x,-y
12 1/2+y,1/2-z,-x
13 -x,-y,-z
14 -z,-x,-y
15 -y,-z,-x
16 x,-1/2-y,-1/2+z
17 z,-1/2-x,-1/2+y
18 y,-1/2-z,-1/2+x
19 -1/2+x,y,-1/2-z
20 -1/2+z,x,-1/2-y
21 -1/2+y,z,-1/2-x
22 -1/2-x,-1/2+y,z
23 -1/2-z,-1/2+x,y
24 -1/2-y,-1/2+z,x
_cell_length_a 12.269(2)
_cell_length_b 12.269(2)
_cell_length_c 12.269(2)
_cell_angle_alpha 90
_cell_angle_beta 90
_cell_angle_gamma 90
_cell_formula_units_Z 4
loop_
_atom_type_symbol
_atom_type_radius_bond
C 0.68
H 0.23
Cl 0.99
N 0.68
Te 1.47
loop_
_atom_site_label
_atom_site_type_symbol
_atom_site_fract_x
_atom_site_fract_y
_atom_site_fract_z
Te1 Te 0.00000 0.00000 0.00000
Cl1 Cl 0.03456 -0.02627 0.20209
N1 N 0.20560 0.20560 0.20560
C1 C 0.15200 0.21110 0.31390
H1 H 0.16600 0.16600 0.16600
H2 H 0.15000 0.12400 0.34400
H3 H 0.08900 0.23700 0.29300
H4 H 0.20500 0.26700 0.35000
Cl1L Cl -0.03456 0.02627 -0.20209
Cl1A Cl 0.20209 0.03456 -0.02627
Cl1M Cl -0.20209 -0.03456 0.02627
Cl1B Cl -0.02627 0.20209 0.03456
Cl1N Cl 0.02627 -0.20209 -0.03456
C1A C 0.31390 0.15200 0.21110
C1B C 0.21110 0.31390 0.15200
H2A H 0.34400 0.15000 0.12400
H3A H 0.29300 0.08900 0.23700
H4A H 0.35000 0.20500 0.26700
H2B H 0.12400 0.34400 0.15000
H3B H 0.23700 0.29300 0.08900
H4B H 0.26700 0.35000 0.20500
#END

data_CSD_CIF_BEVLEW
_audit_creation_date 2018-02-27
_audit_creation_method CSD-ConQuest-V1
_database_code_CSD BEVLEW
_database_code_depnum_ccdc_archive 'CCDC 1826194'
_chemical_formula_sum 'C16 H36 Br6 Mn1 N4'
_chemical_formula_moiety
;
2(C8 H18 N2 2+),Br6 Mn1 4-
;
_journal_coden_Cambridge 1078
_journal_year 2018
_journal_name_full 'CSD Communication(Private Communication) '
loop_
_publ_author_name
"Deng SiYu"
_chemical_name_systematic
;
bis(1,4-dimethyl-1,4-diazabicyclo[2.2.2]octane-1,4-diium) hexabromo-manganese
;
_cell_volume   2585.229
_exptl_crystal_density_diffrn 2.104
_exptl_crystal_description 'block'
_diffrn_ambient_temperature 296.1
#These two values have been output from a single CSD field.
_refine_ls_R_factor_gt 0.0192
_refine_ls_wR_factor_gt 0.0192
_symmetry_cell_setting cubic
_symmetry_space_group_name_H-M 'P a -3'
_symmetry_Int_Tables_number 205
loop_
_symmetry_equiv_pos_site_id
_symmetry_equiv_pos_as_xyz
1 x,y,z
2 1/2-x,-y,1/2+z
3 -x,1/2+y,1/2-z
4 1/2+x,1/2-y,-z
5 z,x,y
6 1/2+z,1/2-x,-y
7 1/2-z,-x,1/2+y
8 -z,1/2+x,1/2-y
9 y,z,x
10 -y,1/2+z,1/2-x
11 1/2+y,1/2-z,-x
12 1/2-y,-z,1/2+x
13 -x,-y,-z
14 -1/2+x,y,-1/2-z
15 x,-1/2-y,-1/2+z
16 -1/2-x,-1/2+y,z
17 -z,-x,-y
18 -1/2-z,-1/2+x,y
19 -1/2+z,x,-1/2-y
20 z,-1/2-x,-1/2+y
21 -y,-z,-x
22 y,-1/2-z,-1/2+x
23 -1/2-y,-1/2+z,x
24 -1/2+y,z,-1/2-x
_cell_length_a 13.7246(5)
_cell_length_b 13.7246(5)
_cell_length_c 13.7246(5)
_cell_angle_alpha 90
_cell_angle_beta 90
_cell_angle_gamma 90
_cell_formula_units_Z 4
loop_
_atom_type_symbol
_atom_type_radius_bond
C 0.68
H 0.23
Br 1.21
Mn 1.61
N 0.68
loop_
_atom_site_label
_atom_site_type_symbol
_atom_site_fract_x
_atom_site_fract_y
_atom_site_fract_z
Br1 Br 0.46159(2) 0.19406(2) 0.03322(2)
Mn1 Mn 0.50000 0.00000 0.00000
N1 N 0.24413(15) 0.24413(15) 0.24413(15)
C1 C 0.23679(18) 0.28609(17) 0.14289(17)
H1 H 0.30110 0.30360 0.11930
H2 H 0.19680 0.34440 0.14380
C2 C 0.19177(18) 0.21083(18) 0.07654(18)
H3 H 0.14740 0.24220 0.03130
H4 H 0.24230 0.17840 0.03920
N2 N 0.13730(14) 0.13730(14) 0.13730(14)
C3 C 0.07447(19) 0.07447(19) 0.07447(19)
H5 H 0.02540 0.11380 0.04380
C4 C 0.3071(2) 0.3071(2) 0.3071(2)
H6 H 0.37220 0.30790 0.28150
H7? H 0.02540 0.11380 0.04380
H8? H 0.37220 0.30790 0.28150
H9? H 0.02540 0.11380 0.04380
H10? H 0.37220 0.30790 0.28150
Br1E Br 0.53322(2) 0.03841(2) -0.19406(2)
Br1K Br 0.30594(2) -0.03322(2) -0.03841(2)
Br1L Br 0.53841(2) -0.19406(2) -0.03322(2)
Br1Q Br 0.46678(2) -0.03841(2) 0.19406(2)
Br1W Br 0.69406(2) 0.03322(2) 0.03841(2)
H5D H 0.04380 0.02540 0.11380
H5H H 0.11380 0.04380 0.02540
H6H H 0.30790 0.28150 0.37220
H6D H 0.28150 0.37220 0.30790
C1D C 0.14289(18) 0.23679(17) 0.28609(17)
H1D H 0.11930 0.30110 0.30360
H2D H 0.14380 0.19680 0.34440
C2D C 0.07654(18) 0.19177(18) 0.21083(18)
H3D H 0.03130 0.14740 0.24220
H4D H 0.03920 0.24230 0.17840
C1H C 0.28609(18) 0.14289(17) 0.23679(17)
H1H H 0.30360 0.11930 0.30110
H2H H 0.34440 0.14380 0.19680
C2H C 0.21083(18) 0.07654(18) 0.19177(18)
H3H H 0.24220 0.03130 0.14740
H4H H 0.17840 0.03920 0.24230
#END

data_CSD_CIF_BILQUJ
_audit_creation_date 2005-03-03
_audit_creation_method CSD-ConQuest-V1
_database_code_CSD BILQUJ
_database_code_depnum_ccdc_archive 'CCDC 236322'
_chemical_formula_sum 'C30 H40 Ag1 B1 N9 P1'
_chemical_formula_moiety
;
C30 H40 Ag1 B1 N9 P1
;
_journal_coden_Cambridge 155
_journal_volume 357
_journal_year 2004
_journal_page_first 4247
_journal_name_full 'Inorg.Chim.Acta '
loop_
_publ_author_name
"Effendy"
"G.G.Lobbia"
"F.Marchetti"
"M.Pellei"
"C.Pettinari"
"R.Pettinari"
"C.Santini"
"B.W.Skelton"
"A.H.White"
_chemical_name_systematic
;
(Hydrogen 
tris(1H-1,2,3-benzotriazole)borato)-(tris(isobutyl)phosphine)-silver(i)
;
_chemical_melting_point 450.15
_cell_volume   6726.651
_exptl_crystal_colour 'colorless'
_exptl_crystal_density_diffrn 1.336
_exptl_special_details
;
Melting point range 450.15-454.15K
light-sensitive

;
_exptl_crystal_description 'prism'
_exptl_crystal_preparation 'chloroform/methanol'
_diffrn_ambient_temperature 150
#These two values have been output from a single CSD field.
_refine_ls_R_factor_gt 0.035
_refine_ls_wR_factor_gt 0.035
_symmetry_cell_setting cubic
_symmetry_space_group_name_H-M 'P a -3'
_symmetry_Int_Tables_number 205
loop_
_symmetry_equiv_pos_site_id
_symmetry_equiv_pos_as_xyz
1 x,y,z
2 y,z,x
3 z,x,y
4 1/2-x,-y,1/2+z
5 1/2+x,1/2-y,-z
6 -x,1/2+y,1/2-z
7 1/2-y,-z,1/2+x
8 1/2+y,1/2-z,-x
9 -y,1/2+z,1/2-x
10 -z,1/2+x,1/2-y
11 1/2-z,-x,1/2+y
12 1/2+z,1/2-x,-y
13 -x,-y,-z
14 -y,-z,-x
15 -z,-x,-y
16 -1/2+x,y,-1/2-z
17 -1/2-x,-1/2+y,z
18 x,-1/2-y,-1/2+z
19 -1/2+y,z,-1/2-x
20 -1/2-y,-1/2+z,x
21 y,-1/2-z,-1/2+x
22 z,-1/2-x,-1/2+y
23 -1/2+z,x,-1/2-y
24 -1/2-z,-1/2+x,y
_cell_length_a 18.877(2)
_cell_length_b 18.877(2)
_cell_length_c 18.877(2)
_cell_angle_alpha 90
_cell_angle_beta 90
_cell_angle_gamma 90
_cell_formula_units_Z 8
loop_
_atom_type_symbol
_atom_type_radius_bond
C 0.68
H 0.23
Ag 1.59
B 0.83
N 0.68
P 1.05
loop_
_atom_site_label
_atom_site_type_symbol
_atom_site_fract_x
_atom_site_fract_y
_atom_site_fract_z
Ag1 Ag 0.209025(8) 0.290975(8) 0.709025(8)
P1 P 0.28176(3) 0.21824(3) 0.78176(3)
C1 C 0.37713(11) 0.21988(11) 0.76019(12)
C2 C 0.40503(13) 0.28828(12) 0.72681(13)
C3 C 0.39632(14) 0.35267(13) 0.77584(15)
C4 C 0.48370(14) 0.27900(15) 0.70627(13)
N1 N 0.07835(9) 0.31956(10) 0.59523(9)
N2 N 0.11119(9) 0.26510(9) 0.62931(9)
N3 N 0.08284(11) 0.20445(9) 0.61196(10)
C5 C 0.02872(13) 0.21910(13) 0.56491(12)
C6 C 0.02516(12) 0.29198(13) 0.55405(12)
C7 C -0.02440(13) 0.32362(17) 0.50795(13)
C8 C -0.07009(16) 0.2772(2) 0.47407(16)
C9 C -0.06597(19) 0.2033(2) 0.48351(18)
C10 C -0.01812(17) 0.17324(19) 0.52875(14)
B1 B 0.10265(12) 0.39735(12) 0.60265(12)
H1 H 0.37772 0.29773 0.68520
H2 H 0.41365 0.39431 0.75389
H3 H 0.42156 0.34493 0.81911
H4 H 0.34719 0.35928 0.78722
H5 H 0.50165 0.32081 0.68545
H6 H 0.48861 0.24057 0.67338
H7 H 0.51090 0.26787 0.74762
H8 H -0.02634 0.37450 0.50083
H9 H -0.10485 0.29627 0.44206
H10 H -0.09797 0.17337 0.45808
H11 H -0.01595 0.12228 0.53581
H12 H 0.40297 0.21178 0.80258
H13 H 0.38637 0.18195 0.72783
H14 H 0.07219 0.42781 0.57222
C1F C 0.28012(11) 0.23981(11) 0.87713(12)
C2F C 0.21172(13) 0.27319(12) 0.90503(13)
C3F C 0.14733(14) 0.22416(13) 0.89632(15)
H2F H 0.10569 0.24611 0.91365
H3F H 0.15507 0.18089 0.92156
H4F H 0.14072 0.21278 0.84719
C4F C 0.22100(14) 0.29373(15) 0.98370(13)
H5F H 0.17919 0.31455 1.00165
H6F H 0.25943 0.32662 0.98861
H7F H 0.23213 0.25238 1.01090
H1F H 0.20227 0.31480 0.87772
H12F H 0.28822 0.19742 0.90297
H13F H 0.31805 0.27217 0.88637
C1K C 0.26019(11) 0.12287(11) 0.78012(12)
C2K C 0.22681(13) 0.09497(12) 0.71172(13)
C3K C 0.27584(14) 0.10368(13) 0.64733(15)
H2K H 0.25389 0.08635 0.60569
H3K H 0.31911 0.07844 0.65507
H4K H 0.28722 0.15281 0.64072
C4K C 0.20627(14) 0.01630(15) 0.72100(13)
H5K H 0.18545 -0.00165 0.67919
H6K H 0.17338 0.01139 0.75943
H7K H 0.24762 -0.01090 0.73213
H1K H 0.18520 0.12228 0.70227
H12K H 0.30258 0.09703 0.78822
H13K H 0.22783 0.11363 0.81805
N1K N 0.09523(9) 0.42165(10) 0.68044(9)
N2K N 0.12931(9) 0.38881(9) 0.73490(9)
N2F N 0.23490(9) 0.37069(9) 0.61119(9)
N1F N 0.18044(9) 0.40477(10) 0.57835(9)
C6F C 0.20802(12) 0.44595(13) 0.52516(12)
C5F C 0.28090(13) 0.43509(13) 0.52872(12)
N3F N 0.29555(11) 0.38804(9) 0.58284(10)
C10F C 0.32676(17) 0.47125(19) 0.48188(14)
C9F C 0.29670(19) 0.51649(20) 0.43403(18)
C8F C 0.22280(16) 0.52593(20) 0.42991(16)
C7F C 0.17638(13) 0.49205(17) 0.47560(13)
H8F H 0.12550 0.49917 0.47366
H9F H 0.20373 0.55794 0.39515
H10F H 0.32663 0.54192 0.40203
H11F H 0.37772 0.46419 0.48405
N3K N 0.11196(11) 0.41716(9) 0.79555(10)
C5K C 0.06491(13) 0.47128(13) 0.78090(12)
C6K C 0.05405(12) 0.47484(13) 0.70802(12)
C7K C 0.00795(13) 0.52440(17) 0.67638(13)
C8K C -0.02593(16) 0.57009(20) 0.72280(16)
C9K C -0.01649(19) 0.56597(20) 0.79670(18)
C10K C 0.02875(17) 0.51812(19) 0.82676(14)
H11K H 0.03581 0.51595 0.87772
H10K H -0.04192 0.59797 0.82663
H9K H -0.05794 0.60485 0.70373
H8K H 0.00083 0.52634 0.62550
#END

data_CSD_CIF_BOSSUY
_audit_creation_date 2009-08-25
_audit_creation_method CSD-ConQuest-V1
_database_code_CSD BOSSUY
_database_code_depnum_ccdc_archive 'CCDC 702872'
_chemical_formula_sum 'C6 H6 K4 O12 Re6 S8'
_chemical_formula_moiety
;
4(K1 1+),C6 H6 O12 Re6 S8 4-
;
_journal_coden_Cambridge 9
_journal_volume 48
_journal_year 2009
_journal_page_first 2309
_journal_name_full 'Inorg.Chem. '
loop_
_publ_author_name
"K.A.Brylev"
"Yu.V.Mironov"
"S.G.Kozlova"
"V.E.Fedorov"
"Sung-Jin Kim"
"H.-J.Pietzsch"
"H.Stephan"
"A.Ito"
"S.Ishizaka"
"N.Kitamura"
_chemical_name_systematic
;
Tetra-potassium octakis(\m~3~-sulfido)-hexakis(formato-O)-hexa-rhenium(iii)
;
_cell_volume   5481.940
_exptl_crystal_colour 'yellow'
_exptl_crystal_density_diffrn 4.362
_exptl_special_details
;
luminescent

;
_exptl_crystal_description 'cubic'
_diffrn_ambient_temperature 298
#These two values have been output from a single CSD field.
_refine_ls_R_factor_gt 0.0208
_refine_ls_wR_factor_gt 0.0208
_symmetry_cell_setting cubic
_symmetry_space_group_name_H-M 'P a -3'
_symmetry_Int_Tables_number 205
loop_
_symmetry_equiv_pos_site_id
_symmetry_equiv_pos_as_xyz
1 x,y,z
2 z,x,y
3 y,z,x
4 1/2-y,-z,1/2+x
5 1/2+z,1/2-x,-y
6 -y,1/2+z,1/2-x
7 1/2-z,-x,1/2+y
8 -z,1/2+x,1/2-y
9 1/2+y,1/2-z,-x
10 1/2-x,-y,1/2+z
11 1/2+x,1/2-y,-z
12 -x,1/2+y,1/2-z
13 -x,-y,-z
14 -z,-x,-y
15 -y,-z,-x
16 -1/2+y,z,-1/2-x
17 -1/2-z,-1/2+x,y
18 y,-1/2-z,-1/2+x
19 -1/2+z,x,-1/2-y
20 z,-1/2-x,-1/2+y
21 -1/2-y,-1/2+z,x
22 -1/2+x,y,-1/2-z
23 -1/2-x,-1/2+y,z
24 x,-1/2-y,-1/2+z
_cell_length_a 17.6324(3)
_cell_length_b 17.6324(3)
_cell_length_c 17.6324(3)
_cell_angle_alpha 90
_cell_angle_beta 90
_cell_angle_gamma 90
_cell_formula_units_Z 8
loop_
_atom_type_symbol
_atom_type_radius_bond
C 0.68
H 0.23
K 1.27
O 0.68
Re 1.41
S 1.02
loop_
_atom_site_label
_atom_site_type_symbol
_atom_site_fract_x
_atom_site_fract_y
_atom_site_fract_z
Re1 Re 0.679585(15) 0.286964(14) 0.221660(14)
Re2 Re 0.640287(15) 0.149129(15) 0.252154(14)
S1 S 0.81037(9) 0.31037(9) 0.18963(9)
S2 S 0.55297(10) 0.25405(10) 0.26281(10)
S3 S 0.6735(1) 0.1895(1) 0.12590(9)
S4 S 0.61741(10) 0.11741(10) 0.38259(10)
O1 O 0.6355(3) 0.3716(3) 0.1492(3)
O2 O 0.6390(3) 0.4613(3) 0.0637(3)
O3 O 0.5535(3) 0.0750(3) 0.2193(3)
O4 O 0.4974(4) -0.0042(4) 0.1436(4)
C1 C 0.6654(5) 0.4064(4) 0.0948(4)
H1 H 0.71170 0.38840 0.07700
C2 C 0.5496(5) 0.0367(5) 0.1608(5)
H2 H 0.59010 0.03970 0.12720
K1 K 0.57665(10) 0.50672(10) 0.21728(10)
K2 K 0.50000 0.00000 0.00000
K3 K 0.50000 0.00000 0.50000
Re1G Re 0.778340(15) 0.179585(14) 0.213036(14)
Re1H Re 0.786964(15) 0.278340(14) 0.320415(14)
Re2G Re 0.747846(15) 0.140287(15) 0.350871(14)
Re2H Re 0.649129(15) 0.247846(15) 0.359713(14)
S2H S 0.75405(10) 0.23719(10) 0.44703(10)
S2G S 0.73719(10) 0.05297(10) 0.24595(10)
S3G S 0.8741(1) 0.1735(1) 0.31050(9)
S3H S 0.6895(1) 0.3741(1) 0.32650(9)
O1G O 0.8508(3) 0.1355(3) 0.1284(3)
O1H O 0.8716(3) 0.3508(3) 0.3645(3)
O2G O 0.9363(3) 0.1390(3) 0.0387(3)
O2H O 0.9613(3) 0.4363(3) 0.3610(3)
O3G O 0.7807(3) 0.0535(3) 0.4250(3)
O3H O 0.5750(3) 0.2807(3) 0.4465(3)
O4G O 0.8564(4) -0.0026(4) 0.5042(4)
O4H O 0.4958(4) 0.3564(4) 0.5026(4)
C1G C 0.9052(5) 0.1654(4) 0.0936(4)
C1H C 0.9064(5) 0.4052(4) 0.3346(4)
H1G H 0.92300 0.21170 0.11160
H1H H 0.88840 0.42300 0.28830
C2G C 0.8392(5) 0.0496(5) 0.4633(5)
C2H C 0.5367(5) 0.3392(5) 0.4504(5)
H2G H 0.87280 0.09010 0.46030
H2H H 0.53970 0.37280 0.40990
#END

data_CSD_CIF_BUKNAX
_audit_creation_date 2010-08-24
_audit_creation_method CSD-ConQuest-V1
_database_code_CSD BUKNAX
_database_code_depnum_ccdc_archive 'CCDC 643230'
_chemical_formula_sum 'C4 H6 As1 F6 I1 N2'
_chemical_formula_moiety
;
C4 H6 I1 N2 1+,As1 F6 1-
;
_journal_coden_Cambridge 9
_journal_volume 48
_journal_year 2009
_journal_page_first 9983
_journal_name_full 'Inorg.Chem. '
loop_
_publ_author_name
"M.J.Crawford"
"M.Gobel"
"K.Karaghiosoff"
"T.M.Klapotke"
"J.M.Welch"
_chemical_name_systematic
;
bis(Acetonitrile)-iodonium hexafluoroarsenate
;
_chemical_name_common
;
bis(Acetonitrile)-lambda$3!-iodane hexafluoro-arsenic; Teaching Subset: 
Symmetry
;
_cell_volume   1032.966
_exptl_crystal_colour 'colorless'
_exptl_crystal_density_diffrn 2.559
_exptl_special_details
;
highly air-sensitive

;
_exptl_crystal_description 'rod'
_diffrn_ambient_temperature 100
#These two values have been output from a single CSD field.
_refine_ls_R_factor_gt 0.0143
_refine_ls_wR_factor_gt 0.0143
_symmetry_cell_setting cubic
_symmetry_space_group_name_H-M 'P a -3'
_symmetry_Int_Tables_number 205
loop_
_symmetry_equiv_pos_site_id
_symmetry_equiv_pos_as_xyz
1 x,y,z
2 1/2-x,-y,1/2+z
3 -x,1/2+y,1/2-z
4 1/2+x,1/2-y,-z
5 z,x,y
6 1/2+z,1/2-x,-y
7 1/2-z,-x,1/2+y
8 -z,1/2+x,1/2-y
9 y,z,x
10 -y,1/2+z,1/2-x
11 1/2+y,1/2-z,-x
12 1/2-y,-z,1/2+x
13 -x,-y,-z
14 -1/2+x,y,-1/2-z
15 x,-1/2-y,-1/2+z
16 -1/2-x,-1/2+y,z
17 -z,-x,-y
18 -1/2-z,-1/2+x,y
19 -1/2+z,x,-1/2-y
20 z,-1/2-x,-1/2+y
21 -y,-z,-x
22 y,-1/2-z,-1/2+x
23 -1/2-y,-1/2+z,x
24 -1/2+y,z,-1/2-x
_cell_length_a 10.1087(1)
_cell_length_b 10.1087(1)
_cell_length_c 10.1087(1)
_cell_angle_alpha 90
_cell_angle_beta 90
_cell_angle_gamma 90
_cell_formula_units_Z 4
loop_
_atom_type_symbol
_atom_type_radius_bond
C 0.68
H 0.23
As 1.21
F 0.64
I 1.40
N 0.68
loop_
_atom_site_label
_atom_site_type_symbol
_atom_site_fract_x
_atom_site_fract_y
_atom_site_fract_z
H1 H 0.162(3) 0.288(3) -0.238(3)
I1 I 0.50000 0.00000 0.00000
N1 N 0.37449(17) 0.12551(17) -0.12551(17)
C1 C 0.2263(3) 0.2737(3) -0.2737(3)
C2 C 0.30928(19) 0.19072(19) -0.19072(19)
As1 As 0.00000 0.00000 0.00000
F1 F 0.04616(11) 0.15958(9) -0.03613(11)
H1K H 0.212(3) 0.238(3) -0.338(3)
H1E H 0.262(3) 0.338(3) -0.288(3)
H1L H 0.838(3) -0.288(3) 0.238(3)
H1W H 0.788(3) -0.238(3) 0.338(3)
H1Q H 0.738(3) -0.338(3) 0.288(3)
N1L N 0.62551(17) -0.12551(17) 0.12551(17)
C1L C 0.7737(3) -0.2737(3) 0.2737(3)
C2L C 0.69072(19) -0.19072(19) 0.19072(19)
F1D F -0.03613(11) 0.04616(9) 0.15958(11)
F1H F 0.15958(11) -0.03613(9) 0.04616(11)
F1L F -0.04616(11) -0.15958(9) 0.03613(11)
F1P F 0.03613(11) -0.04616(9) -0.15958(11)
F1T F -0.15958(11) 0.03613(9) -0.04616(11)
#END

data_CSD_CIF_BUQSEN
_audit_creation_date 2015-08-01
_audit_creation_method CSD-ConQuest-V1
_database_code_CSD BUQSEN
_database_code_depnum_ccdc_archive 'CCDC 957317'
_chemical_formula_sum 'C16 H36 I6 N4 Pb1'
_chemical_formula_moiety
;
2(C8 H18 N2 2+),I6 Pb1 4-
;
_journal_coden_Cambridge 1350
_journal_volume 15
_journal_year 2013
_journal_page_first 10399
_journal_name_full 'CrystEngComm '
loop_
_publ_author_name
"Guan-E Wang"
"Xiao-Ming Jiang"
"Ming-Jian Zhang"
"Hui-Fen Chen"
"Bin-Wen Liu"
"Ming-Sheng Wang"
"Guo-Cong Guo"
_chemical_name_systematic
;
bis(1,4-Dimethyl-1,4-diazoniabicyclo[2.2.2]octane) hexakis(iodo)-lead(ii)
;
_cell_volume   3148.536
_exptl_crystal_colour 'colorless'
_exptl_crystal_density_diffrn 2.605
_exptl_crystal_description 'block'
_diffrn_ambient_temperature 293
#These two values have been output from a single CSD field.
_refine_ls_R_factor_gt 0.0296
_refine_ls_wR_factor_gt 0.0296
_symmetry_cell_setting cubic
_symmetry_space_group_name_H-M 'P a -3'
_symmetry_Int_Tables_number 205
loop_
_symmetry_equiv_pos_site_id
_symmetry_equiv_pos_as_xyz
1 x,y,z
2 1/2-x,-y,1/2+z
3 -x,1/2+y,1/2-z
4 1/2+x,1/2-y,-z
5 z,x,y
6 1/2+z,1/2-x,-y
7 1/2-z,-x,1/2+y
8 -z,1/2+x,1/2-y
9 y,z,x
10 -y,1/2+z,1/2-x
11 1/2+y,1/2-z,-x
12 1/2-y,-z,1/2+x
13 -x,-y,-z
14 -1/2+x,y,-1/2-z
15 x,-1/2-y,-1/2+z
16 -1/2-x,-1/2+y,z
17 -z,-x,-y
18 -1/2-z,-1/2+x,y
19 -1/2+z,x,-1/2-y
20 z,-1/2-x,-1/2+y
21 -y,-z,-x
22 y,-1/2-z,-1/2+x
23 -1/2-y,-1/2+z,x
24 -1/2+y,z,-1/2-x
_cell_length_a 14.6567(3)
_cell_length_b 14.6567(3)
_cell_length_c 14.6567(3)
_cell_angle_alpha 90
_cell_angle_beta 90
_cell_angle_gamma 90
_cell_formula_units_Z 4
loop_
_atom_type_symbol
_atom_type_radius_bond
C 0.68
H 0.23
I 1.40
N 0.68
Pb 1.46
loop_
_atom_site_label
_atom_site_type_symbol
_atom_site_fract_x
_atom_site_fract_y
_atom_site_fract_z
Pb1 Pb 0.00000 1.00000 0.50000
I1 I 0.213464(18) 1.038060(19) 0.459967(17)
N1 N 0.3530(2) 0.6470(2) 0.1470(2)
N2 N 0.2520(2) 0.7480(2) 0.2480(2)
C1 C 0.2113(3) 0.6532(3) 0.2373(3)
H1 H 0.19450 0.62930 0.29670
H2 H 0.15660 0.65650 0.20010
C2 C 0.2796(3) 0.5908(3) 0.1928(3)
H3 H 0.24920 0.55270 0.14800
H4 H 0.30680 0.55130 0.23840
C3 C 0.4123(3) 0.5877(3) 0.0877(3)
H5 H 0.45820 0.62450 0.05900
C4 C 0.1939(4) 0.8061(4) 0.3061(4)
H6 H 0.22110 0.86540 0.31180
H7? H 0.45820 0.62450 0.05900
H8? H 0.22110 0.86540 0.31180
H9? H 0.45820 0.62450 0.05900
H10? H 0.22110 0.86540 0.31180
I1F I 0.040033(18) 0.786536(19) 0.538060(17)
I1I I -0.038060(18) 0.959967(19) 0.286536(17)
I1L I -0.213464(18) 0.961940(19) 0.540033(17)
I1R I -0.040033(18) 1.213464(19) 0.461940(17)
I1U I 0.038060(18) 1.040033(19) 0.713464(17)
H5I H 0.37550 0.55900 0.04180
H5F H 0.44100 0.54180 0.12450
H6F H 0.18820 0.77890 0.36540
H6I H 0.13460 0.81180 0.27890
C1F C 0.2627(3) 0.7887(3) 0.1532(3)
H1F H 0.20330 0.80550 0.12930
H2F H 0.29990 0.84340 0.15650
C2F C 0.3072(3) 0.7204(3) 0.0908(3)
H3F H 0.35200 0.75080 0.05270
H4F H 0.26160 0.69320 0.05130
C1I C 0.3468(3) 0.7373(3) 0.2887(3)
H1I H 0.37070 0.79670 0.30550
H2I H 0.34350 0.70010 0.34340
C2I C 0.4092(3) 0.6928(3) 0.2204(3)
H3I H 0.44730 0.64800 0.25080
H4I H 0.44870 0.73840 0.19320
#END

data_CSD_CIF_BUTDEZ01
_audit_creation_date 1997-03-26
_audit_creation_method CSD-ConQuest-V1
_database_code_CSD BUTDEZ01
_chemical_formula_sum 'C9 H27 Cl1 Co1 P3'
_chemical_formula_moiety
;
C9 H27 Cl1 Co1 P3
;
_journal_coden_Cambridge 36
_journal_volume 513
_journal_year 1996
_journal_page_first 273
_journal_name_full 'J.Organomet.Chem. '
loop_
_publ_author_name
"Chaoyang Dai"
"G.Stringer"
"J.F.Corrigan"
"N.J.Taylor"
"T.B.Marder"
"N.C.Norman"
_chemical_name_systematic
;
Chloro-tris(trimethylphosphine)-cobalt(i)
;
_cell_volume   3613.272
_exptl_crystal_colour 'blue'
_exptl_crystal_density_diffrn 1.186
_diffrn_ambient_temperature 200
#These two values have been output from a single CSD field.
_refine_ls_R_factor_gt 0.0361
_refine_ls_wR_factor_gt 0.0361
_symmetry_cell_setting cubic
_symmetry_space_group_name_H-M 'P a 3'
_symmetry_Int_Tables_number 205
loop_
_symmetry_equiv_pos_site_id
_symmetry_equiv_pos_as_xyz
1 x,y,z
2 1/2-x,-y,1/2+z
3 1/2+x,1/2-y,-z
4 z,x,y
5 -x,1/2+y,1/2-z
6 1/2-z,-x,1/2+y
7 1/2+z,1/2-x,-y
8 -z,1/2+x,1/2-y
9 y,z,x
10 1/2+y,1/2-z,-x
11 -y,1/2+z,1/2-x
12 1/2-y,-z,1/2+x
13 -x,-y,-z
14 -1/2+x,y,-1/2-z
15 -1/2-x,-1/2+y,z
16 -z,-x,-y
17 x,-1/2-y,-1/2+z
18 -1/2+z,x,-1/2-y
19 -1/2-z,-1/2+x,y
20 z,-1/2-x,-1/2+y
21 -y,-z,-x
22 -1/2-y,-1/2+z,x
23 y,-1/2-z,-1/2+x
24 -1/2+y,z,-1/2-x
_cell_length_a 15.345(2)
_cell_length_b 15.345(2)
_cell_length_c 15.345(2)
_cell_angle_alpha 90
_cell_angle_beta 90
_cell_angle_gamma 90
_cell_formula_units_Z 8
loop_
_atom_type_symbol
_atom_type_radius_bond
C 0.68
H 0.23
Cl 0.99
Co 1.33
P 1.05
loop_
_atom_site_label
_atom_site_type_symbol
_atom_site_fract_x
_atom_site_fract_y
_atom_site_fract_z
Co1 Co 0.17049(5) 0.17049 0.17049
Cl1 Cl 0.25425(8) 0.25425 0.25425
P1 P 0.02782(9) 0.19099(9) 0.18992(9)
C1 C -0.0064(4) 0.3038(4) 0.1766(6)
C2 C -0.0120(5) 0.1711(7) 0.3001(4)
C3 C -0.0542(4) 0.1341(5) 0.1250(5)
H1 H -0.06810 0.31000 0.18470
H2 H 0.01060 0.32240 0.11930
H3 H 0.02520 0.33870 0.21780
H4 H 0.03290 0.17610 0.34340
H5 H -0.03720 0.11380 0.29870
H6 H -0.05910 0.21100 0.31010
H7 H -0.03260 0.11470 0.06950
H8 H -0.10190 0.17430 0.11980
H9 H -0.07480 0.08720 0.16080
P1C P 0.18992(9) 0.02782(9) 0.19099(9)
C1C C 0.1766(4) -0.0064(4) 0.3038(6)
H1C H 0.18470 -0.06810 0.31000
H2C H 0.11930 0.01060 0.32240
H3C H 0.21780 0.02520 0.33870
C2C C 0.3001(5) -0.0120(7) 0.1711(4)
H4C H 0.34340 0.03290 0.17610
H5C H 0.29870 -0.03720 0.11380
H6C H 0.31010 -0.05910 0.21100
C3C C 0.1250(4) -0.0542(5) 0.1341(5)
H7C H 0.06950 -0.03260 0.11470
H8C H 0.11980 -0.10190 0.17430
H9C H 0.16080 -0.07480 0.08720
P1H P 0.19099(9) 0.18992(9) 0.02782(9)
C1H C 0.3038(4) 0.1766(4) -0.0064(6)
H1H H 0.31000 0.18470 -0.06810
H2H H 0.32240 0.11930 0.01060
H3H H 0.33870 0.21780 0.02520
C2H C 0.1711(5) 0.3001(7) -0.0120(4)
H4H H 0.17610 0.34340 0.03290
H5H H 0.11380 0.29870 -0.03720
H6H H 0.21100 0.31010 -0.05910
C3H C 0.1341(4) 0.1250(5) -0.0542(5)
H7H H 0.11470 0.06950 -0.03260
H8H H 0.17430 0.11980 -0.10190
H9H H 0.08720 0.16080 -0.07480
#END

data_CSD_CIF_BUYFOQ01
_audit_creation_date 1993-12-13
_audit_creation_method CSD-ConQuest-V1
_database_code_CSD BUYFOQ01
_database_code_depnum_ccdc_archive 'CCDC 1117775'
_chemical_formula_sum 'C3 H18 F6 Ga1 N9'
_chemical_formula_moiety
;
3(C1 H6 N3 1+),F6 Ga1 3-
;
_journal_coeditor_code "IUCr KA1015"
_journal_coden_Cambridge 591
_journal_volume 49
_journal_year 1993
_journal_page_first 1335
_journal_name_full 'Acta Crystallogr.,Sect.C:Cryst.Struct.Commun. '
loop_
_publ_author_name
"H.Maluszynska"
_chemical_name_systematic
;
tris(Guanidinium) hexafluoro-gallium
;
_cell_volume   2787.148
_exptl_crystal_density_diffrn 1.735
_exptl_special_details
;
Isostructural with the aluminium analogue

;
_diffrn_ambient_temperature ?
_diffrn_special_details
;
The study was carried out at room temperature,in the range 283-303K

;
#These two values have been output from a single CSD field.
_refine_ls_R_factor_gt 0.034
_refine_ls_wR_factor_gt 0.034
_symmetry_cell_setting cubic
_symmetry_space_group_name_H-M 'P a 3'
_symmetry_Int_Tables_number 205
loop_
_symmetry_equiv_pos_site_id
_symmetry_equiv_pos_as_xyz
1 x,y,z
2 z,x,y
3 y,z,x
4 -x,1/2+y,1/2-z
5 -z,1/2+x,1/2-y
6 -y,1/2+z,1/2-x
7 1/2-x,-y,1/2+z
8 1/2-z,-x,1/2+y
9 1/2-y,-z,1/2+x
10 1/2+x,1/2-y,-z
11 1/2+z,1/2-x,-y
12 1/2+y,1/2-z,-x
13 -x,-y,-z
14 -z,-x,-y
15 -y,-z,-x
16 x,-1/2-y,-1/2+z
17 z,-1/2-x,-1/2+y
18 y,-1/2-z,-1/2+x
19 -1/2+x,y,-1/2-z
20 -1/2+z,x,-1/2-y
21 -1/2+y,z,-1/2-x
22 -1/2-x,-1/2+y,z
23 -1/2-z,-1/2+x,y
24 -1/2-y,-1/2+z,x
_cell_length_a 14.073(1)
_cell_length_b 14.073(1)
_cell_length_c 14.073(1)
_cell_angle_alpha 90
_cell_angle_beta 90
_cell_angle_gamma 90
_cell_formula_units_Z 8
loop_
_atom_type_symbol
_atom_type_radius_bond
C 0.68
H 0.23
F 0.64
Ga 1.22
N 0.68
loop_
_atom_site_label
_atom_site_type_symbol
_atom_site_fract_x
_atom_site_fract_y
_atom_site_fract_z
Ga1 Ga 0.00000 0.50000 0.00000
F1 F 0.0269(1) 0.6302(1) 0.0237(1)
Ga2 Ga 0.00000 0.50000 0.50000
F2 F 0.0205(1) 0.6309(1) 0.4737(1)
C1 C -0.2337(2) 0.7514(1) 0.5261(3)
N1 N -0.1410(2) 0.7518(2) 0.5235(1)
N2 N -0.2802(2) 0.8312(2) 0.5398(2)
N3 N -0.2794(2) 0.6699(2) 0.5166(2)
H1 H -0.106(3) 0.803(2) 0.528(2)
H2 H -0.104(3) 0.704(3) 0.515(2)
H3 H -0.333(3) 0.827(2) 0.537(2)
H4 H -0.251(2) 0.880(2) 0.543(3)
H5 H -0.333(3) 0.672(3) 0.513(2)
H6 H -0.246(2) 0.630(3) 0.503(2)
F1L F -0.0269(1) 0.3698(1) -0.0237(1)
F1W F -0.1302(1) 0.5237(1) 0.0269(1)
F1K F 0.1302(1) 0.4763(1) -0.0269(1)
F1D F -0.0237(1) 0.5269(1) -0.1302(1)
F1P F 0.0237(1) 0.4731(1) 0.1302(1)
F2L F -0.0205(1) 0.3691(1) 0.5263(1)
F2T F 0.1309(1) 0.4737(1) 0.4795(1)
F2H F -0.1309(1) 0.5263(1) 0.5205(1)
F2V F 0.0263(1) 0.5205(1) 0.6309(1)
F2J F -0.0263(1) 0.4795(1) 0.3691(1)
#END

data_CSD_CIF_BUYFUW01
_audit_creation_date 2007-04-19
_audit_creation_method CSD-ConQuest-V1
_database_code_CSD BUYFUW01
_database_code_depnum_ccdc_archive 'CCDC 1117777'
_chemical_formula_sum 'C3 H18 F6 In1 N9'
_chemical_formula_moiety
;
3(C1 H6 N3 1+),F6 In1 3-
;
_journal_coden_Cambridge 233
_journal_volume 50
_journal_year 2005
_journal_page_first 2002
_journal_name_full 'Zh.Neorg.Khim.(Russ.)(Russ.J.Inorg.Chem.) '
loop_
_publ_author_name
"M.A.Strelkov"
"M.G.Zhizhin"
"S.V.Simonov"
"O.V.Smirnova"
"L.N.Komissarova"
_chemical_name_systematic
;
tris(Guanidinium) hexafluoro-indium(iii)
;
_cell_volume   2956.842
_exptl_special_details
;
isostructural with Sc,Ga,Al and Fe analogues

;
_diffrn_ambient_temperature 295
#These two values have been output from a single CSD field.
_refine_ls_R_factor_gt 0.0363
_refine_ls_wR_factor_gt 0.0363
_symmetry_cell_setting cubic
_symmetry_space_group_name_H-M 'P a -3'
_symmetry_Int_Tables_number 205
loop_
_symmetry_equiv_pos_site_id
_symmetry_equiv_pos_as_xyz
1 x,y,z
2 1/2-x,-y,1/2+z
3 1/2+x,1/2-y,-z
4 z,x,y
5 -x,1/2+y,1/2-z
6 1/2-z,-x,1/2+y
7 1/2+z,1/2-x,-y
8 -z,1/2+x,1/2-y
9 y,z,x
10 1/2+y,1/2-z,-x
11 -y,1/2+z,1/2-x
12 1/2-y,-z,1/2+x
13 -x,-y,-z
14 -1/2+x,y,-1/2-z
15 -1/2-x,-1/2+y,z
16 -z,-x,-y
17 x,-1/2-y,-1/2+z
18 -1/2+z,x,-1/2-y
19 -1/2-z,-1/2+x,y
20 z,-1/2-x,-1/2+y
21 -y,-z,-x
22 -1/2-y,-1/2+z,x
23 y,-1/2-z,-1/2+x
24 -1/2+y,z,-1/2-x
_cell_length_a 14.353(1)
_cell_length_b 14.353(1)
_cell_length_c 14.353(1)
_cell_angle_alpha 90
_cell_angle_beta 90
_cell_angle_gamma 90
_cell_formula_units_Z 8
loop_
_atom_type_symbol
_atom_type_radius_bond
C 0.68
F 0.64
In 1.63
N 0.68
loop_
_atom_site_label
_atom_site_type_symbol
_atom_site_fract_x
_atom_site_fract_y
_atom_site_fract_z
In1 In 0.00000 0.50000 0.50000
F1 F -0.0296(4) 0.6420(3) 0.5276(4)
In2 In 0.00000 0.00000 -0.50000
F2 F -0.0178(4) -0.1388(3) -0.4727(3)
C1 C 0.2386(3) 0.7472(5) 0.5207(4)
N1 N 0.1459(3) 0.7431(6) 0.5214(5)
N2 N 0.2856(5) 0.8277(4) 0.5176(5)
N3 N 0.2864(4) 0.6686(4) 0.5338(5)
F1F F 0.0276(4) 0.5296(3) 0.3580(4)
F1K F -0.1420(4) 0.4724(3) 0.4704(4)
F1L F 0.0296(4) 0.3580(3) 0.4724(4)
F1R F -0.0276(4) 0.4704(3) 0.6420(4)
F1W F 0.1420(4) 0.5276(3) 0.5296(4)
F2E F -0.0273(4) 0.0178(3) -0.6388(3)
F2J F 0.1388(4) 0.0273(3) -0.4822(3)
F2L F 0.0178(4) 0.1388(3) -0.5273(3)
F2Q F 0.0273(4) -0.0178(3) -0.3612(3)
F2V F -0.1388(4) -0.0273(3) -0.5178(3)
#END

data_CSD_CIF_BUYMUG
_audit_creation_date 2020-10-05
_audit_creation_method CSD-ConQuest-V1
_database_code_CSD BUYMUG
_database_code_depnum_ccdc_archive 'CCDC 2015080'
_chemical_formula_sum 'C41 H39 F6 P3'
_chemical_formula_moiety
;
C41 H39 F6 P3
;
_journal_coden_Cambridge 179
_journal_volume 59
_journal_year 2020
_journal_page_first 22790
_journal_name_full 'Angew.Chem.,Int.Ed. '
loop_
_publ_author_name
"D.Bornemann"
"C.R.Pitts"
"L.Wettstein"
"Fabian Bruning"
"Sebastian Kung"
"Liangyu Guan"
"N.Trapp"
"H.Grutzmacher"
"A.Togni"
_chemical_name_systematic
;
(2-{[difluoro(diphenyl)-phosphanyl]methyl}-2-methylpropane-1,3-diyl)bis[difluo
ro(diphenyl)-phosphine]
;
_cell_volume   7302.524
_exptl_crystal_colour 'colorless'
_exptl_crystal_density_diffrn 1.344
_exptl_crystal_description 'block'
_diffrn_ambient_temperature 100
#These two values have been output from a single CSD field.
_refine_ls_R_factor_gt 0.0353
_refine_ls_wR_factor_gt 0.0353
_symmetry_cell_setting cubic
_symmetry_space_group_name_H-M 'P a -3'
_symmetry_Int_Tables_number 205
loop_
_symmetry_equiv_pos_site_id
_symmetry_equiv_pos_as_xyz
1 x,y,z
2 1/2-x,-y,1/2+z
3 -x,1/2+y,1/2-z
4 1/2+x,1/2-y,-z
5 z,x,y
6 1/2+z,1/2-x,-y
7 1/2-z,-x,1/2+y
8 -z,1/2+x,1/2-y
9 y,z,x
10 -y,1/2+z,1/2-x
11 1/2+y,1/2-z,-x
12 1/2-y,-z,1/2+x
13 -x,-y,-z
14 -1/2+x,y,-1/2-z
15 x,-1/2-y,-1/2+z
16 -1/2-x,-1/2+y,z
17 -z,-x,-y
18 -1/2-z,-1/2+x,y
19 -1/2+z,x,-1/2-y
20 z,-1/2-x,-1/2+y
21 -y,-z,-x
22 y,-1/2-z,-1/2+x
23 -1/2-y,-1/2+z,x
24 -1/2+y,z,-1/2-x
_cell_length_a 19.40101(3)
_cell_length_b 19.40101(3)
_cell_length_c 19.40101(3)
_cell_angle_alpha 90
_cell_angle_beta 90
_cell_angle_gamma 90
_cell_formula_units_Z 8
loop_
_atom_type_symbol
_atom_type_radius_bond
C 0.68
H 0.23
F 0.64
P 1.05
loop_
_atom_site_label
_atom_site_type_symbol
_atom_site_fract_x
_atom_site_fract_y
_atom_site_fract_z
P1 P 0.59877(2) 0.15516(2) 0.55089(2)
F1 F 0.68000(4) 0.17233(4) 0.52571(4)
F2 F 0.51863(4) 0.13562(4) 0.57617(4)
C1 C 0.62121(7) 0.12121(7) 0.37879(7)
H1 H 0.61494 0.16865 0.39138
C2 C 0.57550(7) 0.07550(7) 0.42450(7)
C3 C 0.60123(7) 0.07553(7) 0.50042(7)
H2 H 0.64860 0.05954 0.50011
H3 H 0.57450 0.04133 0.52522
C4 C 0.56958(8) 0.23882(7) 0.51866(7)
C5 C 0.61594(9) 0.28496(8) 0.48812(8)
H4 H 0.66217 0.27293 0.48412
C6 C 0.59370(11) 0.34837(9) 0.46375(9)
H5 H 0.62500 0.37870 0.44379
C7 C 0.52522(12) 0.36645(9) 0.46914(9)
H6 H 0.51038 0.40899 0.45278
C8 C 0.47817(11) 0.32118(9) 0.4990(1)
H7 H 0.43190 0.33336 0.50202
C9 C 0.50017(9) 0.25789(8) 0.52429(9)
H8 H 0.46878 0.22815 0.54497
C10 C 0.62681(8) 0.15280(7) 0.64024(7)
C11 C 0.58622(9) 0.18376(8) 0.69091(8)
H9 H 0.54414 0.20349 0.67914
C12 C 0.60867(11) 0.18513(10) 0.75913(9)
H10 H 0.58235 0.20701 0.79269
C13 C 0.67025(12) 0.15381(11) 0.77672(9)
H11 H 0.68515 0.15459 0.82227
C14 C 0.70979(10) 0.12137(10) 0.72719(10)
H12 H 0.75044 0.09924 0.73968
C15 C 0.68876(8) 0.12179(8) 0.65845(9)
H13 H 0.71616 0.10135 0.62484
P1G P 0.44911(2) 0.09877(2) 0.34484(2)
F1G F 0.47429(4) 0.18000(4) 0.32767(4)
F2G F 0.42383(4) 0.01863(4) 0.36438(4)
H1G H 0.60862 0.11494 0.33135
C3G C 0.49958(7) 0.10123(7) 0.42447(7)
H2G H 0.49989 0.14860 0.44046
H3G H 0.47478 0.07450 0.45867
C4G C 0.48134(8) 0.06958(7) 0.26118(7)
C5G C 0.51188(9) 0.11594(8) 0.21504(8)
H4G H 0.51588 0.16217 0.22707
C6G C 0.53625(11) 0.09370(9) 0.15163(9)
H5G H 0.55621 0.12500 0.12130
C7G C 0.53086(12) 0.02522(9) 0.13355(9)
H6G H 0.54722 0.01038 0.09101
C8G C 0.50100(11) -0.02183(9) 0.17882(10)
H7G H 0.49798 -0.06810 0.16664
C9G C 0.47571(9) 0.00017(8) 0.24211(9)
H8G H 0.45503 -0.03122 0.27185
C10G C 0.35976(8) 0.12681(7) 0.34720(7)
C11G C 0.30909(9) 0.08622(8) 0.31624(8)
H9G H 0.32086 0.04414 0.29651
C12G C 0.24087(11) 0.10867(10) 0.31487(9)
H10G H 0.20731 0.08235 0.29299
C13G C 0.22328(12) 0.17025(11) 0.34619(9)
H11G H 0.17773 0.18515 0.34541
C14G C 0.27281(10) 0.20979(10) 0.37863(10)
H12G H 0.26032 0.25044 0.40075
C15G C 0.34155(8) 0.18876(8) 0.37821(9)
H13G H 0.37516 0.21616 0.39865
P1J P 0.65516(2) -0.05089(2) 0.40123(2)
F1J F 0.67233(4) -0.02571(4) 0.32000(4)
F2J F 0.63562(4) -0.07617(4) 0.48137(4)
H1J H 0.66865 0.10862 0.38506
C3J C 0.57553(7) -0.00042(7) 0.39877(7)
H2J H 0.55954 -0.00011 0.35140
H3J H 0.54133 -0.02522 0.42550
C4J C 0.73882(8) -0.01866(7) 0.43042(7)
C5J C 0.78496(9) 0.01188(8) 0.38406(8)
H4J H 0.77293 0.01588 0.33783
C6J C 0.84837(11) 0.03625(9) 0.40630(9)
H5J H 0.87870 0.05621 0.37500
C7J C 0.86645(12) 0.03086(9) 0.47478(9)
H6J H 0.90899 0.04722 0.48962
C8J C 0.82118(11) 0.00100(9) 0.52183(10)
H7J H 0.83336 -0.00202 0.56810
C9J C 0.75789(9) -0.02429(8) 0.49983(9)
H8J H 0.72815 -0.04497 0.53122
C10J C 0.65280(8) -0.14024(7) 0.37319(7)
C11J C 0.68376(9) -0.19091(8) 0.41378(8)
H9J H 0.70349 -0.17914 0.45586
C12J C 0.68513(11) -0.25913(10) 0.39133(9)
H10J H 0.70701 -0.29269 0.41765
C13J C 0.65381(12) -0.27672(11) 0.32975(9)
H11J H 0.65459 -0.32227 0.31485
C14J C 0.62137(10) -0.22719(10) 0.29021(10)
H12J H 0.59925 -0.23968 0.24956
C15J C 0.62179(8) -0.15845(8) 0.31124(9)
H13J H 0.60135 -0.12484 0.28384
#END

data_CSD_CIF_BZCBNL01
_audit_creation_date 1983-11-09
_audit_creation_method CSD-ConQuest-V1
_database_code_CSD BZCBNL01
_database_code_depnum_ccdc_archive 'CCDC 1118128'
_chemical_formula_sum 'C12 N6'
_chemical_formula_moiety
;
C12 N6
;
_journal_coeditor_code "IUCr A22446"
_journal_coden_Cambridge 591
_journal_volume 39
_journal_year 1983
_journal_page_first 638
_journal_name_full 'Acta Crystallogr.,Sect.C:Cryst.Struct.Commun. '
loop_
_publ_author_name
"U.Druck"
"A.Kutoglu"
_chemical_name_systematic
;
Benzenehexacarbonitrile
;
_chemical_name_common
;
Hexacyanobenzene; Teaching Subset: Symmetry
;
_cell_volume   1253.075
_exptl_crystal_colour 'pale yellow'
_exptl_crystal_density_diffrn 1.21
_diffrn_ambient_temperature 120
#These two values have been output from a single CSD field.
_refine_ls_R_factor_gt 0.048
_refine_ls_wR_factor_gt 0.048
loop_
_citation_database_id_CSD
_citation_special_details
BZCBNL03 "is a reinterpretation of this cif"
BZCBNL04 "is a reinterpretation of this cif"
BZCBNL05 "is a reinterpretation of this cif"
_symmetry_cell_setting cubic
_symmetry_space_group_name_H-M 'P a 3'
_symmetry_Int_Tables_number 205
loop_
_symmetry_equiv_pos_site_id
_symmetry_equiv_pos_as_xyz
1 x,y,z
2 z,x,y
3 y,z,x
4 -x,1/2+y,1/2-z
5 -z,1/2+x,1/2-y
6 -y,1/2+z,1/2-x
7 1/2-x,-y,1/2+z
8 1/2-z,-x,1/2+y
9 1/2-y,-z,1/2+x
10 1/2+x,1/2-y,-z
11 1/2+z,1/2-x,-y
12 1/2+y,1/2-z,-x
13 -x,-y,-z
14 -z,-x,-y
15 -y,-z,-x
16 x,-1/2-y,-1/2+z
17 z,-1/2-x,-1/2+y
18 y,-1/2-z,-1/2+x
19 -1/2+x,y,-1/2-z
20 -1/2+z,x,-1/2-y
21 -1/2+y,z,-1/2-x
22 -1/2-x,-1/2+y,z
23 -1/2-z,-1/2+x,y
24 -1/2-y,-1/2+z,x
_cell_length_a 10.781(6)
_cell_length_b 10.781(6)
_cell_length_c 10.781(6)
_cell_angle_alpha 90
_cell_angle_beta 90
_cell_angle_gamma 90
_cell_formula_units_Z 4
loop_
_atom_type_symbol
_atom_type_radius_bond
C 0.68
N 0.68
loop_
_atom_site_label
_atom_site_type_symbol
_atom_site_fract_x
_atom_site_fract_y
_atom_site_fract_z
C1 C 0.09370 -0.08940 -0.00460
C2 C 0.19020 -0.18090 -0.00970
N1 N 0.26740 -0.25350 -0.01420
C1M C 0.00460 -0.09370 0.08940
C1N C 0.08940 0.00460 -0.09370
C1B C -0.08940 -0.00460 0.09370
C2M C 0.00970 -0.19020 0.18090
C1A C -0.00460 0.09370 -0.08940
C2N C 0.18090 0.00970 -0.19020
C1L C -0.09370 0.08940 0.00460
C2B C -0.18090 -0.00970 0.19020
N1M N 0.01420 -0.26740 0.25350
C2A C -0.00970 0.19020 -0.18090
N1N N 0.25350 0.01420 -0.26740
C2L C -0.19020 0.18090 0.00970
N1B N -0.25350 -0.01420 0.26740
N1A N -0.01420 0.26740 -0.25350
N1L N -0.26740 0.25350 0.01420
#END

data_CSD_CIF_BZCBNL03
_audit_creation_date 1985-03-28
_audit_creation_method CSD-ConQuest-V1
_database_code_CSD BZCBNL03
_database_code_depnum_ccdc_archive 'CCDC 1118130'
_chemical_formula_sum 'C12 N6'
_chemical_formula_moiety
;
C12 N6
;
_journal_coden_Cambridge 643
_journal_volume 166
_journal_year 1984
_journal_page_first 233
_journal_name_full 'Z.Krist.Cryst.Mater. '
loop_
_publ_author_name
"U.Druck"
"A.Kutoglu"
_chemical_name_systematic
;
Hexacyanobenzene
;
_cell_volume   1253.075
_exptl_crystal_density_diffrn 1.21
_diffrn_ambient_temperature 120
_refine_special_details
;
high-angle refinement

;
#These two values have been output from a single CSD field.
_refine_ls_R_factor_gt 0.046
_refine_ls_wR_factor_gt 0.046
loop_
_citation_database_id_CSD
_citation_special_details
BZCBNL01 "is reinterpreted by this entry"
_symmetry_cell_setting cubic
_symmetry_space_group_name_H-M 'P a 3'
_symmetry_Int_Tables_number 205
loop_
_symmetry_equiv_pos_site_id
_symmetry_equiv_pos_as_xyz
1 x,y,z
2 z,x,y
3 y,z,x
4 -x,1/2+y,1/2-z
5 -z,1/2+x,1/2-y
6 -y,1/2+z,1/2-x
7 1/2-x,-y,1/2+z
8 1/2-z,-x,1/2+y
9 1/2-y,-z,1/2+x
10 1/2+x,1/2-y,-z
11 1/2+z,1/2-x,-y
12 1/2+y,1/2-z,-x
13 -x,-y,-z
14 -z,-x,-y
15 -y,-z,-x
16 x,-1/2-y,-1/2+z
17 z,-1/2-x,-1/2+y
18 y,-1/2-z,-1/2+x
19 -1/2+x,y,-1/2-z
20 -1/2+z,x,-1/2-y
21 -1/2+y,z,-1/2-x
22 -1/2-x,-1/2+y,z
23 -1/2-z,-1/2+x,y
24 -1/2-y,-1/2+z,x
_cell_length_a 10.781(6)
_cell_length_b 10.781(6)
_cell_length_c 10.781(6)
_cell_angle_alpha 90
_cell_angle_beta 90
_cell_angle_gamma 90
_cell_formula_units_Z 4
loop_
_atom_type_symbol
_atom_type_radius_bond
C 0.68
N 0.68
loop_
_atom_site_label
_atom_site_type_symbol
_atom_site_fract_x
_atom_site_fract_y
_atom_site_fract_z
C1 C 0.0937(1) -0.0893(2) -0.0046(1)
C2 C 0.1896(2) -0.1813(2) -0.0095(2)
N1 N 0.2681(3) -0.2544(3) -0.0137(3)
C1M C 0.0046(1) -0.0937(2) 0.0893(1)
C1N C 0.0893(1) 0.0046(2) -0.0937(1)
C1B C -0.0893(1) -0.0046(2) 0.0937(1)
C2M C 0.0095(2) -0.1896(2) 0.1813(2)
C1A C -0.0046(1) 0.0937(2) -0.0893(1)
C2N C 0.1813(2) 0.0095(2) -0.1896(2)
C1L C -0.0937(1) 0.0893(2) 0.0046(1)
C2B C -0.1813(2) -0.0095(2) 0.1896(2)
N1M N 0.0137(3) -0.2681(3) 0.2544(3)
C2A C -0.0095(2) 0.1896(2) -0.1813(2)
N1N N 0.2544(3) 0.0137(3) -0.2681(3)
C2L C -0.1896(2) 0.1813(2) 0.0095(2)
N1B N -0.2544(3) -0.0137(3) 0.2681(3)
N1A N -0.0137(3) 0.2681(3) -0.2544(3)
N1L N -0.2681(3) 0.2544(3) 0.0137(3)
#END

data_CSD_CIF_BZCBNL04
_audit_creation_date 1985-03-28
_audit_creation_method CSD-ConQuest-V1
_database_code_CSD BZCBNL04
_database_code_depnum_ccdc_archive 'CCDC 1118131'
_chemical_formula_sum 'C12 N6'
_chemical_formula_moiety
;
C12 N6
;
_journal_coden_Cambridge 643
_journal_volume 166
_journal_year 1984
_journal_page_first 233
_journal_name_full 'Z.Krist.Cryst.Mater. '
loop_
_publ_author_name
"U.Druck"
"A.Kutoglu"
_chemical_name_systematic
;
Hexacyanobenzene
;
_cell_volume   1253.075
_exptl_crystal_density_diffrn 1.21
_diffrn_ambient_temperature 120
_refine_special_details
;
charge-cloud model refinement

;
#These two values have been output from a single CSD field.
_refine_ls_R_factor_gt 0.035
_refine_ls_wR_factor_gt 0.035
loop_
_citation_database_id_CSD
_citation_special_details
BZCBNL01 "is reinterpreted by this entry"
_symmetry_cell_setting cubic
_symmetry_space_group_name_H-M 'P a 3'
_symmetry_Int_Tables_number 205
loop_
_symmetry_equiv_pos_site_id
_symmetry_equiv_pos_as_xyz
1 x,y,z
2 z,x,y
3 y,z,x
4 -x,1/2+y,1/2-z
5 -z,1/2+x,1/2-y
6 -y,1/2+z,1/2-x
7 1/2-x,-y,1/2+z
8 1/2-z,-x,1/2+y
9 1/2-y,-z,1/2+x
10 1/2+x,1/2-y,-z
11 1/2+z,1/2-x,-y
12 1/2+y,1/2-z,-x
13 -x,-y,-z
14 -z,-x,-y
15 -y,-z,-x
16 x,-1/2-y,-1/2+z
17 z,-1/2-x,-1/2+y
18 y,-1/2-z,-1/2+x
19 -1/2+x,y,-1/2-z
20 -1/2+z,x,-1/2-y
21 -1/2+y,z,-1/2-x
22 -1/2-x,-1/2+y,z
23 -1/2-z,-1/2+x,y
24 -1/2-y,-1/2+z,x
_cell_length_a 10.781(6)
_cell_length_b 10.781(6)
_cell_length_c 10.781(6)
_cell_angle_alpha 90
_cell_angle_beta 90
_cell_angle_gamma 90
_cell_formula_units_Z 4
loop_
_atom_type_symbol
_atom_type_radius_bond
C 0.68
N 0.68
loop_
_atom_site_label
_atom_site_type_symbol
_atom_site_fract_x
_atom_site_fract_y
_atom_site_fract_z
C1 C 0.0938(1) -0.0893(1) -0.0045(1)
C2 C 0.1903(1) -0.1809(1) -0.0095(1)
N1 N 0.2677(1) -0.2540(1) -0.0142(1)
C1M C 0.0045(1) -0.0938(1) 0.0893(1)
C1N C 0.0893(1) 0.0045(1) -0.0938(1)
C1B C -0.0893(1) -0.0045(1) 0.0938(1)
C2M C 0.0095(1) -0.1903(1) 0.1809(1)
C1A C -0.0045(1) 0.0938(1) -0.0893(1)
C2N C 0.1809(1) 0.0095(1) -0.1903(1)
C1L C -0.0938(1) 0.0893(1) 0.0045(1)
C2B C -0.1809(1) -0.0095(1) 0.1903(1)
N1M N 0.0142(1) -0.2677(1) 0.2540(1)
C2A C -0.0095(1) 0.1903(1) -0.1809(1)
N1N N 0.2540(1) 0.0142(1) -0.2677(1)
C2L C -0.1903(1) 0.1809(1) 0.0095(1)
N1B N -0.2540(1) -0.0142(1) 0.2677(1)
N1A N -0.0142(1) 0.2677(1) -0.2540(1)
N1L N -0.2677(1) 0.2540(1) 0.0142(1)
#END

data_CSD_CIF_BZCBNL05
_audit_creation_date 1985-03-28
_audit_creation_method CSD-ConQuest-V1
_database_code_CSD BZCBNL05
_database_code_depnum_ccdc_archive 'CCDC 1118132'
_chemical_formula_sum 'C12 N6'
_chemical_formula_moiety
;
C12 N6
;
_journal_coden_Cambridge 643
_journal_volume 166
_journal_year 1984
_journal_page_first 233
_journal_name_full 'Z.Krist.Cryst.Mater. '
loop_
_publ_author_name
"U.Druck"
"A.Kutoglu"
_chemical_name_systematic
;
Hexacyanobenzene
;
_cell_volume   1253.075
_exptl_crystal_density_diffrn 1.21
_diffrn_ambient_temperature 120
_refine_special_details
;
multipole model refinement

;
#These two values have been output from a single CSD field.
_refine_ls_R_factor_gt 0.039
_refine_ls_wR_factor_gt 0.039
loop_
_citation_database_id_CSD
_citation_special_details
BZCBNL01 "is reinterpreted by this entry"
_symmetry_cell_setting cubic
_symmetry_space_group_name_H-M 'P a 3'
_symmetry_Int_Tables_number 205
loop_
_symmetry_equiv_pos_site_id
_symmetry_equiv_pos_as_xyz
1 x,y,z
2 z,x,y
3 y,z,x
4 -x,1/2+y,1/2-z
5 -z,1/2+x,1/2-y
6 -y,1/2+z,1/2-x
7 1/2-x,-y,1/2+z
8 1/2-z,-x,1/2+y
9 1/2-y,-z,1/2+x
10 1/2+x,1/2-y,-z
11 1/2+z,1/2-x,-y
12 1/2+y,1/2-z,-x
13 -x,-y,-z
14 -z,-x,-y
15 -y,-z,-x
16 x,-1/2-y,-1/2+z
17 z,-1/2-x,-1/2+y
18 y,-1/2-z,-1/2+x
19 -1/2+x,y,-1/2-z
20 -1/2+z,x,-1/2-y
21 -1/2+y,z,-1/2-x
22 -1/2-x,-1/2+y,z
23 -1/2-z,-1/2+x,y
24 -1/2-y,-1/2+z,x
_cell_length_a 10.781(6)
_cell_length_b 10.781(6)
_cell_length_c 10.781(6)
_cell_angle_alpha 90
_cell_angle_beta 90
_cell_angle_gamma 90
_cell_formula_units_Z 4
loop_
_atom_type_symbol
_atom_type_radius_bond
C 0.68
N 0.68
loop_
_atom_site_label
_atom_site_type_symbol
_atom_site_fract_x
_atom_site_fract_y
_atom_site_fract_z
C1 C 0.0939(1) -0.0893(1) -0.0045(1)
C2 C 0.1899(1) -0.1806(1) -0.0096(1)
N1 N 0.2679(1) -0.2541(2) -0.0143(2)
C1M C 0.0045(1) -0.0939(1) 0.0893(1)
C1N C 0.0893(1) 0.0045(1) -0.0939(1)
C1B C -0.0893(1) -0.0045(1) 0.0939(1)
C2M C 0.0096(1) -0.1899(1) 0.1806(1)
C1A C -0.0045(1) 0.0939(1) -0.0893(1)
C2N C 0.1806(1) 0.0096(1) -0.1899(1)
C1L C -0.0939(1) 0.0893(1) 0.0045(1)
C2B C -0.1806(1) -0.0096(1) 0.1899(1)
N1M N 0.0143(1) -0.2679(2) 0.2541(2)
C2A C -0.0096(1) 0.1899(1) -0.1806(1)
N1N N 0.2541(1) 0.0143(2) -0.2679(2)
C2L C -0.1899(1) 0.1806(1) 0.0096(1)
N1B N -0.2541(1) -0.0143(2) 0.2679(2)
N1A N -0.0143(1) 0.2679(2) -0.2541(2)
N1L N -0.2679(1) 0.2541(2) 0.0143(2)
#END

data_CSD_CIF_CADNOK
_audit_creation_date 1984-04-14
_audit_creation_method CSD-ConQuest-V1
_database_code_CSD CADNOK
_database_code_depnum_ccdc_archive 'CCDC 1118917'
_chemical_formula_sum 'C6 H20 Cl6 N2 Sn1'
_chemical_formula_moiety
;
2(C3 H10 N1 1+),Cl6 Sn1 2-
;
_journal_coden_Cambridge 15
_journal_volume 61
_journal_year 1983
_journal_page_first 1620
_journal_name_full 'Can.J.Chem. '
loop_
_publ_author_name
"O.Knop"
"T.S.Cameron"
"M.A.James"
"M.Falk"
_chemical_name_systematic
;
bis(Trimethylammonium) hexachloro-tin(iv)
;
_chemical_name_common
;
Teaching Subset: Fundamental Chemistry, Symmetry
;
_cell_volume   1820.317
_exptl_crystal_density_diffrn 1.648
_diffrn_ambient_temperature ?
_diffrn_special_details
;
The study was carried out at room temperature,in the range 283-303K

;
#These two values have been output from a single CSD field.
_refine_ls_R_factor_gt 0.022
_refine_ls_wR_factor_gt 0.022
_symmetry_cell_setting cubic
_symmetry_space_group_name_H-M 'P a 3'
_symmetry_Int_Tables_number 205
loop_
_symmetry_equiv_pos_site_id
_symmetry_equiv_pos_as_xyz
1 x,y,z
2 z,x,y
3 y,z,x
4 -x,1/2+y,1/2-z
5 -z,1/2+x,1/2-y
6 -y,1/2+z,1/2-x
7 1/2-x,-y,1/2+z
8 1/2-z,-x,1/2+y
9 1/2-y,-z,1/2+x
10 1/2+x,1/2-y,-z
11 1/2+z,1/2-x,-y
12 1/2+y,1/2-z,-x
13 -x,-y,-z
14 -z,-x,-y
15 -y,-z,-x
16 x,-1/2-y,-1/2+z
17 z,-1/2-x,-1/2+y
18 y,-1/2-z,-1/2+x
19 -1/2+x,y,-1/2-z
20 -1/2+z,x,-1/2-y
21 -1/2+y,z,-1/2-x
22 -1/2-x,-1/2+y,z
23 -1/2-z,-1/2+x,y
24 -1/2-y,-1/2+z,x
_cell_length_a 12.210(3)
_cell_length_b 12.210(3)
_cell_length_c 12.210(3)
_cell_angle_alpha 90
_cell_angle_beta 90
_cell_angle_gamma 90
_cell_formula_units_Z 4
loop_
_atom_type_symbol
_atom_type_radius_bond
C 0.68
H 0.23
Cl 0.99
N 0.68
Sn 1.46
loop_
_atom_site_label
_atom_site_type_symbol
_atom_site_fract_x
_atom_site_fract_y
_atom_site_fract_z
Sn1 Sn 0.00000 0.00000 0.00000
Cl1 Cl -0.02640 0.19430 0.03320
N1 N 0.20340 0.20340 0.20340
H1 H 0.15520 0.15520 0.15520
C1 C 0.31210 0.15050 0.20980
H2 H 0.36230 0.20350 0.25970
H3 H 0.35330 0.13440 0.13320
H4 H 0.29840 0.07420 0.25240
Cl1L Cl 0.02640 -0.19430 -0.03320
Cl1A Cl 0.03320 -0.02640 0.19430
Cl1M Cl -0.03320 0.02640 -0.19430
Cl1B Cl 0.19430 0.03320 -0.02640
Cl1N Cl -0.19430 -0.03320 0.02640
C1A C 0.20980 0.31210 0.15050
C1B C 0.15050 0.20980 0.31210
H2A H 0.25970 0.36230 0.20350
H3A H 0.13320 0.35330 0.13440
H4A H 0.25240 0.29840 0.07420
H2B H 0.20350 0.25970 0.36230
H3B H 0.13440 0.13320 0.35330
H4B H 0.07420 0.25240 0.29840
#END

data_CSD_CIF_CAKFUP01
_audit_creation_date 1991-01-07
_audit_creation_method CSD-ConQuest-V1
_database_code_CSD CAKFUP01
_database_code_depnum_ccdc_archive 'CCDC 1119737'
_chemical_formula_sum 'C6 H18 Cl6 S2 Sn1'
_chemical_formula_moiety
;
2(C3 H9 S1 1+),Cl6 Sn1 2-
;
_journal_coden_Cambridge 15
_journal_volume 67
_journal_year 1989
_journal_page_first 1984
_journal_name_full 'Can.J.Chem. '
loop_
_publ_author_name
"O.Knop"
"A.Linden"
"B.R.Vincent"
"S.C.Choi"
"T.S.Cameron"
"R.J.Boyd"
_chemical_name_systematic
;
bis(Trimethylsulfonium) hexachloro-tin(iv)
;
_cell_volume   1904.779
_exptl_crystal_density_diffrn 1.694
_diffrn_ambient_temperature ?
_diffrn_special_details
;
The study was carried out at room temperature,in the range 283-303K

;
#These two values have been output from a single CSD field.
_refine_ls_R_factor_gt 0.0312
_refine_ls_wR_factor_gt 0.0312
_symmetry_cell_setting cubic
_symmetry_space_group_name_H-M 'P a 3'
_symmetry_Int_Tables_number 205
loop_
_symmetry_equiv_pos_site_id
_symmetry_equiv_pos_as_xyz
1 x,y,z
2 z,x,y
3 y,z,x
4 -x,1/2+y,1/2-z
5 -z,1/2+x,1/2-y
6 -y,1/2+z,1/2-x
7 1/2-x,-y,1/2+z
8 1/2-z,-x,1/2+y
9 1/2-y,-z,1/2+x
10 1/2+x,1/2-y,-z
11 1/2+z,1/2-x,-y
12 1/2+y,1/2-z,-x
13 -x,-y,-z
14 -z,-x,-y
15 -y,-z,-x
16 x,-1/2-y,-1/2+z
17 z,-1/2-x,-1/2+y
18 y,-1/2-z,-1/2+x
19 -1/2+x,y,-1/2-z
20 -1/2+z,x,-1/2-y
21 -1/2+y,z,-1/2-x
22 -1/2-x,-1/2+y,z
23 -1/2-z,-1/2+x,y
24 -1/2-y,-1/2+z,x
_cell_length_a 12.396(5)
_cell_length_b 12.396(5)
_cell_length_c 12.396(5)
_cell_angle_alpha 90
_cell_angle_beta 90
_cell_angle_gamma 90
_cell_formula_units_Z 4
loop_
_atom_type_symbol
_atom_type_radius_bond
C 0.68
H 0.23
Cl 0.99
S 1.02
Sn 1.46
loop_
_atom_site_label
_atom_site_type_symbol
_atom_site_fract_x
_atom_site_fract_y
_atom_site_fract_z
Sn1 Sn 0.00000 0.50000 0.00000
Cl1 Cl 0.1871(1) 0.5428(1) 0.0358(1)
S1 S 0.2298(1) 0.2298(1) 0.2298(1)
C1 C 0.1636(5) 0.3312(5) 0.3053(5)
H1 H 0.121(4) 0.373(4) 0.256(3)
H2 H 0.113(4) 0.292(4) 0.357(4)
H3 H 0.233(3) 0.364(4) 0.353(4)
Cl1L Cl -0.1871(1) 0.4572(1) -0.0358(1)
Cl1W Cl -0.0428(1) 0.5358(1) 0.1871(1)
Cl1K Cl 0.0428(1) 0.4642(1) -0.1871(1)
Cl1D Cl -0.0358(1) 0.6871(1) -0.0428(1)
Cl1P Cl 0.0358(1) 0.3129(1) 0.0428(1)
C1A C 0.3053(5) 0.1636(5) 0.3312(5)
C1B C 0.3312(5) 0.3053(5) 0.1636(5)
H1A H 0.256(4) 0.121(4) 0.373(3)
H2A H 0.357(4) 0.113(4) 0.292(4)
H3A H 0.353(3) 0.233(4) 0.364(4)
H1B H 0.373(4) 0.256(4) 0.121(3)
H2B H 0.292(4) 0.357(4) 0.113(4)
H3B H 0.364(3) 0.353(4) 0.233(4)
#END

data_CSD_CIF_CALBIC
_audit_creation_date 2011-12-12
_audit_creation_method CSD-ConQuest-V1
_database_code_CSD CALBIC
_database_code_depnum_ccdc_archive 'CCDC 855946'
_chemical_formula_sum 'C6 H21 B6 Co1 N3 O13'
_chemical_formula_moiety
;
C6 H21 B6 Co1 N3 O13
;
_journal_coeditor_code "IUCr BM3109"
_journal_coden_Cambridge 591
_journal_volume 67
_journal_year 2011
_journal_page_first m338
_journal_name_full 'Acta Crystallogr.,Sect.C:Cryst.Struct.Commun. '
loop_
_publ_author_name
"Shao-Min Lan"
"Wen-Jing Di"
"Zhi-Dong Shao"
"Yun-Xiao Liang"
_chemical_name_systematic
;
[1,5,9-tris(2-aminoethoxy)-3,7,11-trihydroxy-3,7,11-tribora-1,5,9-triborata-2,
4,6,8,10,12-hexaoxa-13-oxoniatricyclo[7.3.1.0^5,13^]tridecane]-cobalt(ii)
;
_chemical_name_common
;
[tris(2-aminoethoxy)trihydroxyhexaborato]-cobalt(ii)
;
_cell_volume   3567.270
_exptl_crystal_colour 'pale pink'
_exptl_crystal_density_diffrn 1.739
_exptl_crystal_description 'block'
_diffrn_ambient_temperature 293
#These two values have been output from a single CSD field.
_refine_ls_R_factor_gt 0.0229
_refine_ls_wR_factor_gt 0.0229
_symmetry_cell_setting cubic
_symmetry_space_group_name_H-M 'P a -3'
_symmetry_Int_Tables_number 205
loop_
_symmetry_equiv_pos_site_id
_symmetry_equiv_pos_as_xyz
1 x,y,z
2 1/2-x,-y,1/2+z
3 -x,1/2+y,1/2-z
4 1/2+x,1/2-y,-z
5 z,x,y
6 1/2+z,1/2-x,-y
7 1/2-z,-x,1/2+y
8 -z,1/2+x,1/2-y
9 y,z,x
10 -y,1/2+z,1/2-x
11 1/2+y,1/2-z,-x
12 1/2-y,-z,1/2+x
13 -x,-y,-z
14 -1/2+x,y,-1/2-z
15 x,-1/2-y,-1/2+z
16 -1/2-x,-1/2+y,z
17 -z,-x,-y
18 -1/2-z,-1/2+x,y
19 -1/2+z,x,-1/2-y
20 z,-1/2-x,-1/2+y
21 -y,-z,-x
22 y,-1/2-z,-1/2+x
23 -1/2-y,-1/2+z,x
24 -1/2+y,z,-1/2-x
_cell_length_a 15.2796(18)
_cell_length_b 15.2796(18)
_cell_length_c 15.2796(18)
_cell_angle_alpha 90
_cell_angle_beta 90
_cell_angle_gamma 90
_cell_formula_units_Z 8
loop_
_atom_type_symbol
_atom_type_radius_bond
C 0.68
H 0.23
B 0.83
Co 1.26
N 0.68
O 0.68
loop_
_atom_site_label
_atom_site_type_symbol
_atom_site_fract_x
_atom_site_fract_y
_atom_site_fract_z
Co1 Co 0.131061(13) 0.131061(13) 0.131061(13)
O1 O 0.32642(7) 0.12440(6) 0.30563(7)
O2 O 0.26659(7) 0.11257(7) 0.15998(7)
O3 O 0.38769(6) 0.21073(7) 0.19145(7)
O4 O 0.31865(8) 0.10226(8) 0.45622(7)
O5 O 0.24263(6) 0.24263(6) 0.24263(6)
B1 B 0.30894(10) 0.1709(1) 0.22458(10)
B2 B 0.28342(12) 0.14069(10) 0.38326(11)
N1 N 0.17831(10) 0.09872(10) 0.00375(9)
C1 C 0.31151(11) 0.07367(11) 0.08804(10)
C2 C 0.27420(12) 0.10950(13) 0.00365(11)
H1 H 0.30440 0.01060 0.08970
H2 H 0.37350 0.08690 0.09160
H3 H 0.28890 0.17100 -0.00190
H4 H 0.29930 0.07850 -0.04580
H5 H 0.3038(15) 0.1223(14) 0.4991(15)
H6 H 0.16420 0.04310 -0.00950
H7 H 0.15390 0.13420 -0.03650
O1H O 0.12440(7) 0.30563(6) 0.32642(7)
O1D O 0.30563(7) 0.32642(6) 0.12440(7)
O2D O 0.15998(7) 0.26659(7) 0.11257(7)
O2H O 0.11257(7) 0.15998(7) 0.26659(7)
O3H O 0.21073(6) 0.19145(7) 0.38769(7)
O3D O 0.19145(6) 0.38769(7) 0.21073(7)
O4D O 0.45622(8) 0.31865(8) 0.10226(7)
O4H O 0.10226(8) 0.45622(8) 0.31865(7)
B1H B 0.1709(1) 0.22458(10) 0.30894(10)
B1D B 0.22458(10) 0.30894(10) 0.1709(1)
B2H B 0.14069(12) 0.38326(10) 0.28342(11)
B2D B 0.38326(12) 0.28342(10) 0.14069(11)
N1H N 0.09872(10) 0.00375(10) 0.17831(9)
N1D N 0.00375(10) 0.17831(10) 0.09872(9)
C1H C 0.07367(11) 0.08804(11) 0.31151(10)
C1D C 0.08804(11) 0.31151(11) 0.07367(10)
C2H C 0.10950(12) 0.00365(13) 0.27420(11)
C2D C 0.00365(12) 0.27420(13) 0.10950(11)
H1D H 0.08970 0.30440 0.01060
H1H H 0.01060 0.08970 0.30440
H2D H 0.09160 0.37350 0.08690
H2H H 0.08690 0.09160 0.37350
H3D H -0.00190 0.28890 0.17100
H3H H 0.17100 -0.00190 0.28890
H4D H -0.04580 0.29930 0.07850
H4H H 0.07850 -0.04580 0.29930
H5D H 0.4991(15) 0.3038(14) 0.1223(15)
H5H H 0.1223(15) 0.4991(14) 0.3038(15)
H6D H -0.00950 0.16420 0.04310
H6H H 0.04310 -0.00950 0.16420
H7D H -0.03650 0.15390 0.13420
H7H H 0.13420 -0.03650 0.15390
#END

data_CSD_CIF_CALBOI
_audit_creation_date 2011-12-12
_audit_creation_method CSD-ConQuest-V1
_database_code_CSD CALBOI
_database_code_depnum_ccdc_archive 'CCDC 855947'
_chemical_formula_sum 'C6 H21 B6 N3 Ni1 O13'
_chemical_formula_moiety
;
C6 H21 B6 N3 Ni1 O13
;
_journal_coeditor_code "IUCr BM3109"
_journal_coden_Cambridge 591
_journal_volume 67
_journal_year 2011
_journal_page_first m338
_journal_name_full 'Acta Crystallogr.,Sect.C:Cryst.Struct.Commun. '
loop_
_publ_author_name
"Shao-Min Lan"
"Wen-Jing Di"
"Zhi-Dong Shao"
"Yun-Xiao Liang"
_chemical_name_systematic
;
[1,5,9-tris(2-aminoethoxy)-3,7,11-trihydroxy-3,7,11-tribora-1,5,9-triborata-2,
4,6,8,10,12-hexaoxa-13-oxoniatricyclo[7.3.1.0^5,13^]tridecane]-nickel(ii)
;
_chemical_name_common
;
[tris(2-aminoethoxy)trihydroxyhexaborato]-nickel(ii)
;
_cell_volume   3526.870
_exptl_crystal_colour 'blue'
_exptl_crystal_density_diffrn 1.758
_exptl_crystal_description 'block'
_diffrn_ambient_temperature 293
#These two values have been output from a single CSD field.
_refine_ls_R_factor_gt 0.0438
_refine_ls_wR_factor_gt 0.0438
_symmetry_cell_setting cubic
_symmetry_space_group_name_H-M 'P a -3'
_symmetry_Int_Tables_number 205
loop_
_symmetry_equiv_pos_site_id
_symmetry_equiv_pos_as_xyz
1 x,y,z
2 1/2-x,-y,1/2+z
3 -x,1/2+y,1/2-z
4 1/2+x,1/2-y,-z
5 z,x,y
6 1/2+z,1/2-x,-y
7 1/2-z,-x,1/2+y
8 -z,1/2+x,1/2-y
9 y,z,x
10 -y,1/2+z,1/2-x
11 1/2+y,1/2-z,-x
12 1/2-y,-z,1/2+x
13 -x,-y,-z
14 -1/2+x,y,-1/2-z
15 x,-1/2-y,-1/2+z
16 -1/2-x,-1/2+y,z
17 -z,-x,-y
18 -1/2-z,-1/2+x,y
19 -1/2+z,x,-1/2-y
20 z,-1/2-x,-1/2+y
21 -y,-z,-x
22 y,-1/2-z,-1/2+x
23 -1/2-y,-1/2+z,x
24 -1/2+y,z,-1/2-x
_cell_length_a 15.2217(18)
_cell_length_b 15.2217(18)
_cell_length_c 15.2217(18)
_cell_angle_alpha 90
_cell_angle_beta 90
_cell_angle_gamma 90
_cell_formula_units_Z 8
loop_
_atom_type_symbol
_atom_type_radius_bond
C 0.68
H 0.23
B 0.83
N 0.68
Ni 1.24
O 0.68
loop_
_atom_site_label
_atom_site_type_symbol
_atom_site_fract_x
_atom_site_fract_y
_atom_site_fract_z
Ni1 Ni 0.13077(3) 0.13077(3) 0.13077(3)
O1 O 0.32601(16) 0.12309(15) 0.30443(15)
O2 O 0.26448(16) 0.11086(16) 0.15913(15)
O3 O 0.38667(15) 0.20905(16) 0.18920(16)
O4 O 0.31826(18) 0.10076(18) 0.45563(17)
O5 O 0.24183(14) 0.24183(14) 0.24183(14)
B1 B 0.3080(3) 0.1696(3) 0.2231(3)
B2 B 0.2828(3) 0.1388(3) 0.3823(3)
N1 N 0.1734(2) 0.1002(2) 0.0045(2)
C1 C 0.3090(3) 0.0726(3) 0.0856(2)
C2 C 0.2702(3) 0.1099(3) 0.0021(3)
H1 H 0.30190 0.00930 0.08650
H2 H 0.37120 0.08590 0.08850
H3 H 0.28560 0.17150 -0.00330
H4 H 0.29370 0.07900 -0.04840
H5 H 0.302(3) 0.119(3) 0.502(3)
H6 H 0.15820 0.04480 -0.00910
H7 H 0.14840 0.13670 -0.03470
O1D O 0.30443(16) 0.32601(15) 0.12309(15)
O1H O 0.12309(16) 0.30443(15) 0.32601(15)
O2D O 0.15913(16) 0.26448(16) 0.11086(15)
O2H O 0.11086(16) 0.15913(16) 0.26448(15)
O3D O 0.18920(15) 0.38667(16) 0.20905(16)
O3H O 0.20905(15) 0.18920(16) 0.38667(16)
O4D O 0.45563(18) 0.31826(18) 0.10076(17)
O4H O 0.10076(18) 0.45563(18) 0.31826(17)
B1D B 0.2231(3) 0.3080(3) 0.1696(3)
B1H B 0.1696(3) 0.2231(3) 0.3080(3)
B2D B 0.3823(3) 0.2828(3) 0.1388(3)
B2H B 0.1388(3) 0.3823(3) 0.2828(3)
N1D N 0.0045(2) 0.1734(2) 0.1002(2)
N1H N 0.1002(2) 0.0045(2) 0.1734(2)
C1D C 0.0856(3) 0.3090(3) 0.0726(2)
C1H C 0.0726(3) 0.0856(3) 0.3090(2)
C2D C 0.0021(3) 0.2702(3) 0.1099(3)
C2H C 0.1099(3) 0.0021(3) 0.2702(3)
H1D H 0.08650 0.30190 0.00930
H1H H 0.00930 0.08650 0.30190
H2D H 0.08850 0.37120 0.08590
H2H H 0.08590 0.08850 0.37120
H3D H -0.00330 0.28560 0.17150
H3H H 0.17150 -0.00330 0.28560
H4D H -0.04840 0.29370 0.07900
H4H H 0.07900 -0.04840 0.29370
H5D H 0.502(3) 0.302(3) 0.119(3)
H5H H 0.119(3) 0.502(3) 0.302(3)
H6D H -0.00910 0.15820 0.04480
H6H H 0.04480 -0.00910 0.15820
H7D H -0.03470 0.14840 0.13670
H7H H 0.13670 -0.03470 0.14840
#END

data_CSD_CIF_CAWXAA
_audit_creation_date 2005-12-21
_audit_creation_method CSD-ConQuest-V1
_database_code_CSD CAWXAA
_database_code_depnum_ccdc_archive 'CCDC 274534'
_chemical_formula_sum 'C26 H38 Cl6 N6 O4 Re1'
_chemical_formula_moiety
;
2(C13 H19 N3 O2 1+),Cl6 Re1 2-
;
_journal_coden_Cambridge 155
_journal_volume 358
_journal_year 2005
_journal_page_first 3995
_journal_name_full 'Inorg.Chim.Acta '
loop_
_publ_author_name
"R.Gonzalez"
"F.Romero"
"D.Luneau"
"D.Armentano"
"G.De Munno"
"C.Kremer"
"F.Lloret"
"M.Julve"
"J.Faus"
_chemical_name_systematic
;
bis(2-(3-N-Methylpyridinium)-4,4,5,5-tetramethyl-4,5-dihydro-1H-imidazol-1-oxy
l-3-N-oxide) hexachloro-rhenium(iv)
;
_cell_volume  10617.537
_exptl_crystal_colour 'green'
_exptl_crystal_density_diffrn 1.684
_exptl_crystal_description 'polyhedral'
_diffrn_ambient_temperature 293
#These two values have been output from a single CSD field.
_refine_ls_R_factor_gt 0.0452
_refine_ls_wR_factor_gt 0.0452
_symmetry_cell_setting cubic
_symmetry_space_group_name_H-M 'P a -3'
_symmetry_Int_Tables_number 205
loop_
_symmetry_equiv_pos_site_id
_symmetry_equiv_pos_as_xyz
1 x,y,z
2 z,x,y
3 y,z,x
4 1/2-x,-y,1/2+z
5 -x,1/2+y,1/2-z
6 1/2+x,1/2-y,-z
7 1/2+z,1/2-x,-y
8 1/2-z,-x,1/2+y
9 -z,1/2+x,1/2-y
10 -y,1/2+z,1/2-x
11 1/2+y,1/2-z,-x
12 1/2-y,-z,1/2+x
13 -x,-y,-z
14 -z,-x,-y
15 -y,-z,-x
16 -1/2+x,y,-1/2-z
17 x,-1/2-y,-1/2+z
18 -1/2-x,-1/2+y,z
19 -1/2-z,-1/2+x,y
20 -1/2+z,x,-1/2-y
21 z,-1/2-x,-1/2+y
22 y,-1/2-z,-1/2+x
23 -1/2-y,-1/2+z,x
24 -1/2+y,z,-1/2-x
_cell_length_a 21.979(3)
_cell_length_b 21.979(3)
_cell_length_c 21.979(3)
_cell_angle_alpha 90
_cell_angle_beta 90
_cell_angle_gamma 90
_cell_formula_units_Z 12
loop_
_atom_type_symbol
_atom_type_radius_bond
C 0.68
H 0.23
Cl 0.99
N 0.68
O 0.68
Re 1.35
loop_
_atom_site_label
_atom_site_type_symbol
_atom_site_fract_x
_atom_site_fract_y
_atom_site_fract_z
Re1 Re 0.70856(2) 0.79144(2) 0.20856(2)
Cl1 Cl 0.60962(14) 0.76828(16) 0.1750(2)
Cl2 Cl 0.74173(17) 0.69291(16) 0.18400(18)
Re2 Re 0.50000 0.50000 0.00000
Cl3 Cl 0.49547(13) 0.39309(10) -0.00462(14)
O1 O 0.8642(4) 0.7399(4) 0.4839(4)
N1 N 0.8787(4) 0.7836(4) 0.4500(4)
O2 O 0.8545(3) 0.9203(4) 0.3804(4)
N2 N 0.8733(4) 0.8691(4) 0.3991(4)
C1 C 0.8444(5) 0.8311(5) 0.4341(5)
C2 C 0.9373(5) 0.7854(5) 0.4150(5)
C3 C 0.9383(5) 0.8521(5) 0.3924(6)
C4 C 0.9888(5) 0.7694(6) 0.4586(6)
H1 H 0.98520 0.72760 0.47060
H2 H 0.98650 0.79500 0.49390
H3 H 1.02720 0.77550 0.43860
C5 C 0.9306(7) 0.7373(6) 0.3658(7)
H4 H 0.93040 0.69770 0.38410
H5 H 0.96410 0.74030 0.33790
H6 H 0.89310 0.74360 0.34430
C6 C 0.9560(5) 0.8591(6) 0.3265(6)
H7 H 0.95570 0.90150 0.31570
H8 H 0.92760 0.83750 0.30130
H9 H 0.99610 0.84290 0.32030
C7 C 0.9755(5) 0.8941(6) 0.4318(6)
H10 H 0.97420 0.93450 0.41520
H11 H 1.01690 0.88020 0.43290
H12 H 0.95910 0.89440 0.47230
C8 C 0.7803(5) 0.8378(5) 0.4537(5)
C9 C 0.7583(5) 0.8125(5) 0.5073(5)
H13 H 0.78430 0.79150 0.53330
C10 C 0.6970(5) 0.8187(6) 0.5220(5)
H14 H 0.68140 0.80280 0.55790
C11 C 0.6608(6) 0.8488(6) 0.4818(5)
H15 H 0.61960 0.85280 0.49060
C12 C 0.7416(5) 0.8677(5) 0.4158(5)
H16 H 0.75590 0.88450 0.37970
C13 C 0.6425(5) 0.9052(5) 0.3870(5)
H17 H 0.60150 0.90600 0.40210
H18 H 0.64330 0.88450 0.34850
H19 H 0.65690 0.94610 0.38180
N3 N 0.6820(4) 0.8727(4) 0.4307(4)
Cl1F Cl 0.67500(14) 0.89038(16) 0.23172(20)
Cl1K Cl 0.73172(14) 0.82500(16) 0.10962(20)
Cl2F Cl 0.68400(17) 0.75827(16) 0.30709(18)
Cl2K Cl 0.80709(17) 0.81600(16) 0.24173(18)
Cl3S Cl 0.49538(13) 0.49547(10) 0.10691(14)
Cl3U Cl 0.39309(13) 0.50462(10) -0.00453(14)
Cl3L Cl 0.50453(13) 0.60691(10) 0.00462(14)
Cl3G Cl 0.50462(13) 0.50453(10) -0.10691(14)
Cl3I Cl 0.60691(13) 0.49538(10) 0.00453(14)
#END

data_CSD_CIF_CIYJUQ01
_audit_creation_date 2018-01-11
_audit_creation_method CSD-ConQuest-V1
_database_code_CSD CIYJUQ01
_database_code_depnum_ccdc_archive 'CCDC 1813756'
_chemical_formula_sum 'C36 H75 Cl2 Fe7 N6 O26'
_chemical_formula_moiety
;
C36 H75 Fe7 N6 O18 2+,2(Cl1 O4 1-)
;
_journal_coeditor_code "qf3003"
_journal_coden_Cambridge 1777
_journal_volume 74
_journal_year 2018
_journal_page_first 125
_journal_name_full 'Acta Crystallogr.,Sect.C:Cryst.Struct.Chem. '
loop_
_publ_author_name
"J.A.van der Horn"
"M.Lutz"
_chemical_name_systematic
;
tris(N-(2-hydroxyethyl)-2,2'-iminodiethanolato)-tris(2,2',2''-nitrilotriethano
lato)-tetra-iron(ii)-tri-iron(iii) diperchlorate
;
_cell_volume  10776.873
_exptl_crystal_colour 'black'
_exptl_crystal_density_diffrn 1.812
_exptl_crystal_description 'block'
_diffrn_ambient_temperature 100
#These two values have been output from a single CSD field.
_refine_ls_R_factor_gt 0.0279
_refine_ls_wR_factor_gt 0.0279
loop_
_citation_database_id_CSD
_citation_special_details
CIYJUQ "is reinterpreted by this entry"
_symmetry_cell_setting cubic
_symmetry_space_group_name_H-M 'P a -3'
_symmetry_Int_Tables_number 205
loop_
_symmetry_equiv_pos_site_id
_symmetry_equiv_pos_as_xyz
1 x,y,z
2 1/2-x,-y,1/2+z
3 1/2+x,1/2-y,-z
4 -x,1/2+y,1/2-z
5 z,x,y
6 1/2-z,-x,1/2+y
7 1/2+z,1/2-x,-y
8 -z,1/2+x,1/2-y
9 y,z,x
10 1/2+y,1/2-z,-x
11 -y,1/2+z,1/2-x
12 1/2-y,-z,1/2+x
13 -x,-y,-z
14 -1/2+x,y,-1/2-z
15 -1/2-x,-1/2+y,z
16 x,-1/2-y,-1/2+z
17 -z,-x,-y
18 -1/2+z,x,-1/2-y
19 -1/2-z,-1/2+x,y
20 z,-1/2-x,-1/2+y
21 -y,-z,-x
22 -1/2-y,-1/2+z,x
23 y,-1/2-z,-1/2+x
24 -1/2+y,z,-1/2-x
_cell_length_a 22.0884(6)
_cell_length_b 22.0884(6)
_cell_length_c 22.0884(6)
_cell_angle_alpha 90
_cell_angle_beta 90
_cell_angle_gamma 90
_cell_formula_units_Z 8
loop_
_atom_type_symbol
_atom_type_radius_bond
C 0.68
H 0.23
Cl 0.99
Fe 1.52
N 0.68
O 0.68
loop_
_atom_site_label
_atom_site_type_symbol
_atom_site_fract_x
_atom_site_fract_y
_atom_site_fract_z
Fe1 Fe 0.25330(2) 0.25330(2) 0.25330(2)
Fe2 Fe 0.22069(2) 0.16731(2) 0.36722(2)
Fe3 Fe 0.33830(2) 0.13764(2) 0.28373(2)
O1 O 0.17204(4) 0.21290(4) 0.29115(4)
O2 O 0.21869(4) 0.12195(4) 0.45628(4)
H1 H 0.2383(9) 0.1233(11) 0.4913(9)
O3 O 0.26809(4) 0.10217(4) 0.32397(4)
O4 O 0.29956(4) 0.21244(4) 0.32770(4)
O5 O 0.37899(4) 0.05905(4) 0.27734(4)
O6 O 0.40289(4) 0.18411(4) 0.24104(4)
N1 N 0.14858(4) 0.10076(4) 0.35394(4)
N2 N 0.40266(4) 0.15008(4) 0.35735(4)
C1 C 0.10275(5) 0.13060(5) 0.31484(5)
H2 H 0.07664 0.15695 0.34000
H3 H 0.07676 0.09937 0.29591
C2 C 0.13276(5) 0.16854(5) 0.26538(5)
H4 H 0.15626 0.14176 0.23819
H5 H 0.10119 0.18892 0.24095
C3 C 0.12445(5) 0.08718(6) 0.41514(5)
H6 H 0.09711 0.05174 0.41280
H7 H 0.10054 0.12215 0.42977
C4 C 0.17503(6) 0.07400(5) 0.45961(5)
H8 H 0.15851 0.07121 0.50118
H9 H 0.19446 0.03489 0.44951
C5 C 0.17540(5) 0.04711(5) 0.32310(6)
H10 H 0.16644 0.04925 0.27923
H11 H 0.15651 0.00980 0.33923
C6 C 0.24374(5) 0.04385(5) 0.33227(5)
H12 H 0.25296 0.02913 0.37358
H13 H 0.26181 0.01536 0.30277
C7 C 0.37356(5) 0.18936(5) 0.40332(5)
H14 H 0.40475 0.20717 0.43012
H15 H 0.34550 0.16514 0.42852
C8 C 0.33886(5) 0.23950(5) 0.37111(5)
H16 H 0.31499 0.26314 0.40078
H17 H 0.36749 0.26727 0.35067
C9 C 0.41247(6) 0.08692(5) 0.37804(5)
H18 H 0.37676 0.07276 0.40113
H19 H 0.44824 0.08513 0.40499
C10 C 0.42245(5) 0.04634(5) 0.32320(6)
H20 H 0.46371 0.05296 0.30698
H21 H 0.41908 0.00339 0.33554
C11 C 0.45825(5) 0.17931(6) 0.33281(5)
H22 H 0.49445 0.16026 0.35112
H23 H 0.45836 0.22276 0.34381
C12 C 0.46122(5) 0.17298(5) 0.26411(5)
H24 H 0.49042 0.20244 0.24714
H25 H 0.47461 0.13168 0.25297
Cl1 Cl 0.09580(2) 0.09580(2) 0.09580(2)
O7 O 0.08074(5) 0.08564(5) 0.15863(5)
O8 O 0.05841(5) 0.05841(5) 0.05841(5)
Cl2 Cl 0.41017(2) 0.41017(2) 0.41017(2)
O9 O 0.42281(5) 0.34728(5) 0.42264(5)
O10 O 0.44765(5) 0.44765(5) 0.44765(5)
Fe2D Fe 0.36722(2) 0.22069(2) 0.16731(2)
Fe3D Fe 0.28373(2) 0.33830(2) 0.13764(2)
O1D O 0.29115(4) 0.17204(4) 0.21290(4)
O2D O 0.45628(4) 0.21869(4) 0.12195(4)
H1D H 0.4913(9) 0.2383(11) 0.1233(9)
O3D O 0.32397(4) 0.26809(4) 0.10217(4)
O4D O 0.32770(4) 0.29956(4) 0.21244(4)
O5D O 0.27734(4) 0.37899(4) 0.05905(4)
O6D O 0.24104(4) 0.40289(4) 0.18411(4)
N1D N 0.35394(4) 0.14858(4) 0.10076(4)
N2D N 0.35735(4) 0.40266(4) 0.15008(4)
C1D C 0.31484(5) 0.10275(5) 0.13060(5)
H2D H 0.34000 0.07664 0.15695
H3D H 0.29591 0.07676 0.09937
C2D C 0.26538(5) 0.13276(5) 0.16854(5)
H4D H 0.23819 0.15626 0.14176
H5D H 0.24095 0.10119 0.18892
C3D C 0.41514(5) 0.12445(6) 0.08718(5)
H6D H 0.41280 0.09711 0.05174
H7D H 0.42977 0.10054 0.12215
C4D C 0.45961(6) 0.17503(5) 0.07400(5)
H8D H 0.50118 0.15851 0.07121
H9D H 0.44951 0.19446 0.03489
C5D C 0.32310(5) 0.17540(5) 0.04711(6)
H10D H 0.27923 0.16644 0.04925
H11D H 0.33923 0.15651 0.00980
C6D C 0.33227(5) 0.24374(5) 0.04385(5)
H12D H 0.37358 0.25296 0.02913
H13D H 0.30277 0.26181 0.01536
C7D C 0.40332(5) 0.37356(5) 0.18936(5)
H14D H 0.43012 0.40475 0.20717
H15D H 0.42852 0.34550 0.16514
C8D C 0.37111(5) 0.33886(5) 0.23950(5)
H16D H 0.40078 0.31499 0.26314
H17D H 0.35067 0.36749 0.26727
C9D C 0.37804(6) 0.41247(5) 0.08692(5)
H18D H 0.40113 0.37676 0.07276
H19D H 0.40499 0.44824 0.08513
C10D C 0.32320(5) 0.42245(5) 0.04634(6)
H20D H 0.30698 0.46371 0.05296
H21D H 0.33554 0.41908 0.00339
C11D C 0.33281(5) 0.45825(6) 0.17931(5)
H22D H 0.35112 0.49445 0.16026
H23D H 0.34381 0.45836 0.22276
C12D C 0.26411(5) 0.46122(5) 0.17298(5)
H24D H 0.24714 0.49042 0.20244
H25D H 0.25297 0.47461 0.13168
Fe2H Fe 0.16731(2) 0.36722(2) 0.22069(2)
Fe3H Fe 0.13764(2) 0.28373(2) 0.33830(2)
O1H O 0.21290(4) 0.29115(4) 0.17204(4)
O2H O 0.12195(4) 0.45628(4) 0.21869(4)
H1H H 0.1233(9) 0.4913(11) 0.2383(9)
O3H O 0.10217(4) 0.32397(4) 0.26809(4)
O4H O 0.21244(4) 0.32770(4) 0.29956(4)
O5H O 0.05905(4) 0.27734(4) 0.37899(4)
O6H O 0.18411(4) 0.24104(4) 0.40289(4)
N1H N 0.10076(4) 0.35394(4) 0.14858(4)
N2H N 0.15008(4) 0.35735(4) 0.40266(4)
C1H C 0.13060(5) 0.31484(5) 0.10275(5)
H2H H 0.15695 0.34000 0.07664
H3H H 0.09937 0.29591 0.07676
C2H C 0.16854(5) 0.26538(5) 0.13276(5)
H4H H 0.14176 0.23819 0.15626
H5H H 0.18892 0.24095 0.10119
C3H C 0.08718(5) 0.41514(6) 0.12445(5)
H6H H 0.05174 0.41280 0.09711
H7H H 0.12215 0.42977 0.10054
C4H C 0.07400(6) 0.45961(5) 0.17503(5)
H8H H 0.07121 0.50118 0.15851
H9H H 0.03489 0.44951 0.19446
C5H C 0.04711(5) 0.32310(5) 0.17540(6)
H10H H 0.04925 0.27923 0.16644
H11H H 0.00980 0.33923 0.15651
C6H C 0.04385(5) 0.33227(5) 0.24374(5)
H12H H 0.02913 0.37358 0.25296
H13H H 0.01536 0.30277 0.26181
C7H C 0.18936(5) 0.40332(5) 0.37356(5)
H14H H 0.20717 0.43012 0.40475
H15H H 0.16514 0.42852 0.34550
C8H C 0.23950(5) 0.37111(5) 0.33886(5)
H16H H 0.26314 0.40078 0.31499
H17H H 0.26727 0.35067 0.36749
C9H C 0.08692(6) 0.37804(5) 0.41247(5)
H18H H 0.07276 0.40113 0.37676
H19H H 0.08513 0.40499 0.44824
C10H C 0.04634(5) 0.32320(5) 0.42245(6)
H20H H 0.05296 0.30698 0.46371
H21H H 0.00339 0.33554 0.41908
C11H C 0.17931(5) 0.33281(6) 0.45825(5)
H22H H 0.16026 0.35112 0.49445
H23H H 0.22276 0.34381 0.45836
C12H C 0.17298(5) 0.26411(5) 0.46122(5)
H24H H 0.20244 0.24714 0.49042
H25H H 0.13168 0.25297 0.47461
O7D O 0.15863(5) 0.08074(5) 0.08564(5)
O7H O 0.08564(5) 0.15863(5) 0.08074(5)
O9D O 0.42264(5) 0.42281(5) 0.34728(5)
O9H O 0.34728(5) 0.42264(5) 0.42281(5)
#END

data_CSD_CIF_COQYUC01
_audit_creation_date 2001-03-08
_audit_creation_method CSD-ConQuest-V1
_database_code_CSD COQYUC01
_chemical_formula_sum 'C27 H64 Si4'
_chemical_formula_moiety
;
C27 H64 Si4
;
_journal_coden_Cambridge 579
_journal_volume 18
_journal_year 1999
_journal_page_first 3921
_journal_name_full 'Organometallics '
loop_
_publ_author_name
"P.P.Gasper"
"A.M.Beatty"
"T.Chen"
"T.Haile"
"Deqing Lei"
"W.R.Winchester"
"J.Braddock-Wilking"
"N.P.Rath"
"W.T.Klooster"
"T.F.Koetzle"
"S.A.Mason"
"A.Albinati"
_chemical_name_systematic
;
tris(Triisopropylsilyl)silane
;
_chemical_melting_point 479.15
_cell_volume   6527.984
_exptl_crystal_colour 'colorless'
_exptl_crystal_density_diffrn 1.02
_exptl_special_details
;
Melting point range 479.15-482.15K

;
_exptl_crystal_description 'prism'
_exptl_crystal_preparation 'pentane'
_diffrn_ambient_temperature 20
_diffrn_radiation_probe 'neutron radiation'
#These two values have been output from a single CSD field.
_refine_ls_R_factor_gt 0.0384
_refine_ls_wR_factor_gt 0.0384
_symmetry_cell_setting cubic
_symmetry_space_group_name_H-M 'P a -3'
_symmetry_Int_Tables_number 205
loop_
_symmetry_equiv_pos_site_id
_symmetry_equiv_pos_as_xyz
1 x,y,z
2 1/2-x,-y,1/2+z
3 1/2+x,1/2-y,-z
4 z,x,y
5 -x,1/2+y,1/2-z
6 1/2-z,-x,1/2+y
7 1/2+z,1/2-x,-y
8 -z,1/2+x,1/2-y
9 y,z,x
10 1/2+y,1/2-z,-x
11 -y,1/2+z,1/2-x
12 1/2-y,-z,1/2+x
13 -x,-y,-z
14 -1/2+x,y,-1/2-z
15 -1/2-x,-1/2+y,z
16 -z,-x,-y
17 x,-1/2-y,-1/2+z
18 -1/2+z,x,-1/2-y
19 -1/2-z,-1/2+x,y
20 z,-1/2-x,-1/2+y
21 -y,-z,-x
22 -1/2-y,-1/2+z,x
23 y,-1/2-z,-1/2+x
24 -1/2+y,z,-1/2-x
_cell_length_a 18.6893(5)
_cell_length_b 18.6893(5)
_cell_length_c 18.6893(5)
_cell_angle_alpha 90
_cell_angle_beta 90
_cell_angle_gamma 90
_cell_formula_units_Z 8
loop_
_atom_type_symbol
_atom_type_radius_bond
C 0.68
H 0.23
Si 1.20
loop_
_atom_site_label
_atom_site_type_symbol
_atom_site_fract_x
_atom_site_fract_y
_atom_site_fract_z
Si1 Si 0.14682(6) 0.14682(6) 0.14682(6)
Si2 Si 0.23218(6) 0.12704(6) 0.05302(6)
C1 C 0.32310(4) 0.10739(4) 0.09640(4)
H1 H 0.31424(9) 0.05629(9) 0.12505(9)
C2 C 0.23405(4) 0.21145(4) -0.00499(4)
H2 H 0.17755(9) 0.22770(9) -0.01025(9)
C3 C 0.21311(4) 0.04975(4) -0.01089(4)
H3 H 0.25240(9) 0.05799(9) -0.05425(9)
C4 C 0.38236(4) 0.09453(4) 0.04059(4)
H4 H 0.43181(10) 0.07731(12) 0.06648(11)
H5 H 0.36826(11) 0.05395(11) 0.00126(10)
H6 H 0.39446(10) 0.14388(10) 0.01153(11)
C5 C 0.35029(4) 0.16190(4) 0.15166(4)
H7 H 0.39534(10) 0.13989(11) 0.18194(11)
H8 H 0.36935(11) 0.21053(10) 0.12566(10)
H9 H 0.3094(1) 0.17764(11) 0.19008(10)
C6 C 0.26322(4) 0.19918(4) -0.08089(4)
H10 H 0.26619(11) 0.2498(1) -0.1100(1)
H11 H 0.31727(10) 0.17681(11) -0.08016(10)
H12 H 0.22971(11) 0.16313(11) -0.1121(1)
C7 C 0.27476(4) 0.27396(4) 0.02962(4)
H13 H 0.26429(12) 0.32367(10) 0.00061(12)
H14 H 0.26033(11) 0.28262(11) 0.08544(10)
H15 H 0.33261(10) 0.26472(10) 0.02765(11)
C8 C 0.13830(4) 0.05332(4) -0.04473(4)
H16 H 0.13056(11) 0.00994(11) -0.08341(11)
H17 H 0.09616(9) 0.04822(12) -0.00437(10)
H18 H 0.12929(11) 0.10366(10) -0.07302(11)
C9 C 0.22672(4) -0.02508(4) 0.01959(4)
H19 H 0.21743(12) -0.06562(10) -0.02166(11)
H20 H 0.28138(10) -0.03205(10) 0.03880(11)
H21 H 0.19065(11) -0.03740(11) 0.06366(11)
H22 H 0.19334(9) 0.19334(9) 0.19334(9)
Si2C Si 0.05302(6) 0.23218(6) 0.12704(6)
C1C C 0.09640(4) 0.32310(4) 0.10739(4)
H1C H 0.12505(9) 0.31424(9) 0.05629(9)
C4C C 0.04059(4) 0.38236(4) 0.09453(4)
H4C H 0.06648(10) 0.43181(12) 0.07731(11)
H5C H 0.00126(11) 0.36826(11) 0.05395(10)
H6C H 0.01153(10) 0.39446(10) 0.14388(11)
C5C C 0.15166(4) 0.35029(4) 0.16190(4)
H7C H 0.18194(10) 0.39534(11) 0.13989(11)
H8C H 0.12566(11) 0.36935(10) 0.21053(10)
H9C H 0.19008(10) 0.30940(11) 0.17764(10)
C2C C -0.00499(4) 0.23405(4) 0.21145(4)
H2C H -0.01025(9) 0.17755(9) 0.22770(9)
C6C C -0.08089(4) 0.26322(4) 0.19918(4)
H10C H -0.11000(11) 0.26619(10) 0.2498(1)
H11C H -0.08016(10) 0.31727(11) 0.17681(10)
H12C H -0.11210(11) 0.22971(11) 0.16313(10)
C7C C 0.02962(4) 0.27476(4) 0.27396(4)
H13C H 0.00061(12) 0.26429(10) 0.32367(12)
H14C H 0.08544(11) 0.26033(11) 0.28262(10)
H15C H 0.02765(10) 0.33261(10) 0.26472(11)
C3C C -0.01089(4) 0.21311(4) 0.04975(4)
H3C H -0.05425(9) 0.25240(9) 0.05799(9)
C8C C -0.04473(4) 0.13830(4) 0.05332(4)
H16C H -0.08341(11) 0.13056(11) 0.00994(11)
H17C H -0.00437(9) 0.09616(12) 0.04822(10)
H18C H -0.07302(11) 0.12929(10) 0.10366(11)
C9C C 0.01959(4) 0.22672(4) -0.02508(4)
H19C H -0.02166(12) 0.21743(10) -0.06562(11)
H20C H 0.0388(1) 0.28138(10) -0.03205(11)
H21C H 0.06366(11) 0.19065(11) -0.03740(11)
Si2H Si 0.12704(6) 0.05302(6) 0.23218(6)
C1H C 0.10739(4) 0.09640(4) 0.32310(4)
H1H H 0.05629(9) 0.12505(9) 0.31424(9)
C4H C 0.09453(4) 0.04059(4) 0.38236(4)
H4H H 0.07731(10) 0.06648(12) 0.43181(11)
H5H H 0.05395(11) 0.00126(11) 0.36826(10)
H6H H 0.14388(10) 0.01153(10) 0.39446(11)
C5H C 0.16190(4) 0.15166(4) 0.35029(4)
H7H H 0.13989(10) 0.18194(11) 0.39534(11)
H8H H 0.21053(11) 0.12566(10) 0.36935(10)
H9H H 0.17764(10) 0.19008(11) 0.3094(1)
C2H C 0.21145(4) -0.00499(4) 0.23405(4)
H2H H 0.22770(9) -0.01025(9) 0.17755(9)
C6H C 0.19918(4) -0.08089(4) 0.26322(4)
H10H H 0.24980(11) -0.1100(1) 0.26619(10)
H11H H 0.17681(10) -0.08016(11) 0.31727(10)
H12H H 0.16313(11) -0.11210(11) 0.22971(10)
C7H C 0.27396(4) 0.02962(4) 0.27476(4)
H13H H 0.32367(12) 0.00061(10) 0.26429(12)
H14H H 0.28262(11) 0.08544(11) 0.26033(10)
H15H H 0.26472(10) 0.02765(10) 0.33261(11)
C3H C 0.04975(4) -0.01089(4) 0.21311(4)
H3H H 0.05799(9) -0.05425(9) 0.25240(9)
C8H C 0.05332(4) -0.04473(4) 0.13830(4)
H16H H 0.00994(11) -0.08341(11) 0.13056(11)
H17H H 0.04822(9) -0.00437(12) 0.09616(10)
H18H H 0.10366(11) -0.07302(10) 0.12929(11)
C9H C -0.02508(4) 0.01959(4) 0.22672(4)
H19H H -0.06562(12) -0.02166(10) 0.21743(11)
H20H H -0.03205(10) 0.0388(1) 0.28138(11)
H21H H -0.03740(11) 0.06366(11) 0.19065(11)
#END

data_CSD_CIF_COQYUC02
_audit_creation_date 2001-03-08
_audit_creation_method CSD-ConQuest-V1
_database_code_CSD COQYUC02
_chemical_formula_sum 'C27 H64 Si4'
_chemical_formula_moiety
;
C27 H64 Si4
;
_journal_coden_Cambridge 579
_journal_volume 18
_journal_year 1999
_journal_page_first 3921
_journal_name_full 'Organometallics '
loop_
_publ_author_name
"P.P.Gasper"
"A.M.Beatty"
"T.Chen"
"T.Haile"
"Deqing Lei"
"W.R.Winchester"
"J.Braddock-Wilking"
"N.P.Rath"
"W.T.Klooster"
"T.F.Koetzle"
"S.A.Mason"
"A.Albinati"
_chemical_name_systematic
;
tris(Triisopropylsilyl)silane
;
_chemical_melting_point 479.15
_cell_volume   6763.064
_exptl_crystal_colour 'colorless'
_exptl_crystal_density_diffrn 0.984
_exptl_special_details
;
Melting point range 479.15-482.15K

;
_exptl_crystal_description 'prism'
_exptl_crystal_preparation 'pentane'
_diffrn_ambient_temperature ?
_diffrn_special_details
;
The study was carried out at room temperature,in the range 283-303K

;
#These two values have been output from a single CSD field.
_refine_ls_R_factor_gt 0.0496
_refine_ls_wR_factor_gt 0.0496
_symmetry_cell_setting cubic
_symmetry_space_group_name_H-M 'P a 3'
_symmetry_Int_Tables_number 205
loop_
_symmetry_equiv_pos_site_id
_symmetry_equiv_pos_as_xyz
1 x,y,z
2 1/2-x,-y,1/2+z
3 1/2+x,1/2-y,-z
4 z,x,y
5 -x,1/2+y,1/2-z
6 1/2-z,-x,1/2+y
7 1/2+z,1/2-x,-y
8 -z,1/2+x,1/2-y
9 y,z,x
10 1/2+y,1/2-z,-x
11 -y,1/2+z,1/2-x
12 1/2-y,-z,1/2+x
13 -x,-y,-z
14 -1/2+x,y,-1/2-z
15 -1/2-x,-1/2+y,z
16 -z,-x,-y
17 x,-1/2-y,-1/2+z
18 -1/2+z,x,-1/2-y
19 -1/2-z,-1/2+x,y
20 z,-1/2-x,-1/2+y
21 -y,-z,-x
22 -1/2-y,-1/2+z,x
23 y,-1/2-z,-1/2+x
24 -1/2+y,z,-1/2-x
_cell_length_a 18.911(4)
_cell_length_b 18.911(4)
_cell_length_c 18.911(4)
_cell_angle_alpha 90
_cell_angle_beta 90
_cell_angle_gamma 90
_cell_formula_units_Z 8
loop_
_atom_type_symbol
_atom_type_radius_bond
C 0.68
H 0.23
Si 1.20
loop_
_atom_site_label
_atom_site_type_symbol
_atom_site_fract_x
_atom_site_fract_y
_atom_site_fract_z
Si1 Si 0.14870 0.14870 0.14870
Si2 Si 0.2321(1) 0.1269(1) 0.0552(1)
C1 C 0.3218(2) 0.1066(2) 0.0967(2)
C2 C 0.2353(2) 0.2080(2) -0.0032(2)
C3 C 0.2122(2) 0.0499(2) -0.0059(2)
C4 C 0.3787(2) 0.0922(3) 0.0415(3)
C5 C 0.3491(2) 0.1602(2) 0.1498(2)
C6 C 0.2633(2) 0.1956(2) -0.0777(2)
C7 C 0.2728(2) 0.2704(2) 0.0292(3)
C8 C 0.1398(2) 0.0533(2) -0.0405(2)
C9 C 0.2242(2) -0.0225(2) 0.0237(2)
H1 H 0.31580 0.06330 0.12270
H2 H 0.18730 0.22330 -0.00890
H3 H 0.24470 0.05450 -0.04460
H4 H 0.42270 0.08150 0.06460
H5 H 0.36490 0.05280 0.01260
H6 H 0.38440 0.13340 0.01250
H7 H 0.36400 0.14530 0.16830
H8 H 0.35450 0.20480 0.12620
H9 H 0.31600 0.16510 0.18800
H10 H 0.26260 0.23880 -0.10440
H11 H 0.31110 0.17880 -0.07390
H12 H 0.23500 0.16070 -0.10130
H13 H 0.27200 0.31020 -0.00230
H14 H 0.25120 0.28330 0.07330
H15 H 0.32090 0.25630 0.03730
H16 H 0.13220 0.01350 -0.07100
H17 H 0.10490 0.05330 -0.00370
H18 H 0.13600 0.09620 -0.06740
H19 H 0.21290 -0.05760 -0.01110
H20 H 0.27290 -0.02700 0.03710
H21 H 0.19480 -0.02920 0.06460
H22 H 0.19780 0.19780 0.19780
Si2C Si 0.0552(1) 0.2321(1) 0.1269(1)
C1C C 0.0967(2) 0.3218(2) 0.1066(2)
C4C C 0.0415(2) 0.3787(3) 0.0922(3)
H4C H 0.06460 0.42270 0.08150
H5C H 0.01260 0.36490 0.05280
H6C H 0.01250 0.38440 0.13340
C5C C 0.1498(2) 0.3491(2) 0.1602(2)
H7C H 0.16830 0.36400 0.14530
H8C H 0.12620 0.35450 0.20480
H9C H 0.18800 0.31600 0.16510
H1C H 0.12270 0.31580 0.06330
C2C C -0.0032(2) 0.2353(2) 0.2080(2)
C6C C -0.0777(2) 0.2633(2) 0.1956(2)
H10C H -0.10440 0.26260 0.23880
H11C H -0.07390 0.31110 0.17880
H12C H -0.10130 0.23500 0.16070
C7C C 0.0292(2) 0.2728(2) 0.2704(3)
H13C H -0.00230 0.27200 0.31020
H14C H 0.07330 0.25120 0.28330
H15C H 0.03730 0.32090 0.25630
H2C H -0.00890 0.18730 0.22330
C3C C -0.0059(2) 0.2122(2) 0.0499(2)
C8C C -0.0405(2) 0.1398(2) 0.0533(2)
H16C H -0.07100 0.13220 0.01350
H17C H -0.00370 0.10490 0.05330
H18C H -0.06740 0.13600 0.09620
C9C C 0.0237(2) 0.2242(2) -0.0225(2)
H19C H -0.01110 0.21290 -0.05760
H20C H 0.03710 0.27290 -0.02700
H21C H 0.06460 0.19480 -0.02920
H3C H -0.04460 0.24470 0.05450
Si2H Si 0.1269(1) 0.0552(1) 0.2321(1)
C1H C 0.1066(2) 0.0967(2) 0.3218(2)
C4H C 0.0922(2) 0.0415(3) 0.3787(3)
H4H H 0.08150 0.06460 0.42270
H5H H 0.05280 0.01260 0.36490
H6H H 0.13340 0.01250 0.38440
C5H C 0.1602(2) 0.1498(2) 0.3491(2)
H7H H 0.14530 0.16830 0.36400
H8H H 0.20480 0.12620 0.35450
H9H H 0.16510 0.18800 0.31600
H1H H 0.06330 0.12270 0.31580
C2H C 0.2080(2) -0.0032(2) 0.2353(2)
C6H C 0.1956(2) -0.0777(2) 0.2633(2)
H10H H 0.23880 -0.10440 0.26260
H11H H 0.17880 -0.07390 0.31110
H12H H 0.16070 -0.10130 0.23500
C7H C 0.2704(2) 0.0292(2) 0.2728(3)
H13H H 0.31020 -0.00230 0.27200
H14H H 0.28330 0.07330 0.25120
H15H H 0.25630 0.03730 0.32090
H2H H 0.22330 -0.00890 0.18730
C3H C 0.0499(2) -0.0059(2) 0.2122(2)
C8H C 0.0533(2) -0.0405(2) 0.1398(2)
H16H H 0.01350 -0.07100 0.13220
H17H H 0.05330 -0.00370 0.10490
H18H H 0.09620 -0.06740 0.13600
C9H C -0.0225(2) 0.0237(2) 0.2242(2)
H19H H -0.05760 -0.01110 0.21290
H20H H -0.02700 0.03710 0.27290
H21H H -0.02920 0.06460 0.19480
H3H H 0.05450 -0.04460 0.24470
#END

data_CSD_CIF_DBENCR11
_audit_creation_date 2006-10-20
_audit_creation_method CSD-ConQuest-V1
_database_code_CSD DBENCR11
_database_code_depnum_ccdc_archive 'CCDC 265557'
_chemical_formula_sum 'C12 H12 Cr1'
_chemical_formula_moiety
;
C12 H12 Cr1
;
_journal_coden_Cambridge 1277
_journal_volume 110
_journal_year 2006
_journal_page_first 6545
_journal_name_full 'J.Phys.Chem.A '
loop_
_publ_author_name
"K.A.Lyssenko"
"A.A.Korlyukov"
"D.G.Golovanov"
"S.Yu.Ketkov"
"M.Yu.Antipin"
_chemical_name_systematic
;
bis(\h^6^-Benzene)-chromium(0)
;
_cell_volume    876.852
_exptl_crystal_colour 'red'
_exptl_crystal_density_diffrn 1.577
_exptl_special_details
;
air- and moisture-sensitive

;
_exptl_crystal_description 'cubic'
_exptl_crystal_preparation 'sublimation'
_diffrn_ambient_temperature 100
_refine_special_details
;
multipole refinement

;
#These two values have been output from a single CSD field.
_refine_ls_R_factor_gt 0.0295
_refine_ls_wR_factor_gt 0.0295
_symmetry_cell_setting cubic
_symmetry_space_group_name_H-M 'P a -3'
_symmetry_Int_Tables_number 205
loop_
_symmetry_equiv_pos_site_id
_symmetry_equiv_pos_as_xyz
1 x,y,z
2 z,x,y
3 y,z,x
4 1/2-x,-y,1/2+z
5 -x,1/2+y,1/2-z
6 1/2+x,1/2-y,-z
7 1/2+z,1/2-x,-y
8 1/2-z,-x,1/2+y
9 -z,1/2+x,1/2-y
10 -y,1/2+z,1/2-x
11 1/2+y,1/2-z,-x
12 1/2-y,-z,1/2+x
13 -x,-y,-z
14 -z,-x,-y
15 -y,-z,-x
16 -1/2+x,y,-1/2-z
17 x,-1/2-y,-1/2+z
18 -1/2-x,-1/2+y,z
19 -1/2-z,-1/2+x,y
20 -1/2+z,x,-1/2-y
21 z,-1/2-x,-1/2+y
22 y,-1/2-z,-1/2+x
23 -1/2-y,-1/2+z,x
24 -1/2+y,z,-1/2-x
_cell_length_a 9.5714(2)
_cell_length_b 9.5714(2)
_cell_length_c 9.5714(2)
_cell_angle_alpha 90
_cell_angle_beta 90
_cell_angle_gamma 90
_cell_formula_units_Z 4
loop_
_atom_type_symbol
_atom_type_radius_bond
C 0.68
H 0.23
Cr 1.35
loop_
_atom_site_label
_atom_site_type_symbol
_atom_site_fract_x
_atom_site_fract_y
_atom_site_fract_z
Cr1 Cr 0.00000 0.00000 0.00000
C1 C 0.14668(7) 0.16726(7) -0.02331(8)
C2 C 0.21706(7) 0.04694(8) 0.02643(8)
H1 H 0.1738(15) 0.2151(15) -0.1091(16)
H2 H 0.2964(18) 0.0084(16) -0.0278(17)
C1A C -0.02331(7) 0.14668(7) 0.16726(8)
C1B C 0.16726(7) -0.02331(7) 0.14668(8)
C1L C -0.14668(7) -0.16726(7) 0.02331(8)
C1M C 0.02331(7) -0.14668(7) -0.16726(8)
C1N C -0.16726(7) 0.02331(7) -0.14668(8)
C2A C 0.02643(7) 0.21706(8) 0.04694(8)
C2B C 0.04694(7) 0.02643(8) 0.21706(8)
C2L C -0.21706(7) -0.04694(8) -0.02643(8)
C2M C -0.02643(7) -0.21706(8) -0.04694(8)
C2N C -0.04694(7) -0.02643(8) -0.21706(8)
H1M H 0.1091(15) -0.1738(15) -0.2151(16)
H1N H -0.2151(15) 0.1091(15) -0.1738(16)
H1L H -0.1738(15) -0.2151(15) 0.1091(16)
H1A H -0.1091(15) 0.1738(15) 0.2151(16)
H1B H 0.2151(15) -0.1091(15) 0.1738(16)
H2N H -0.0084(18) 0.0278(16) -0.2964(17)
H2L H -0.2964(18) -0.0084(16) 0.0278(17)
H2M H 0.0278(18) -0.2964(16) -0.0084(17)
H2B H 0.0084(18) -0.0278(16) 0.2964(17)
H2A H -0.0278(18) 0.2964(16) 0.0084(17)
#END

data_CSD_CIF_DEKCIG
_audit_creation_date 2006-09-26
_audit_creation_method CSD-ConQuest-V1
_database_code_CSD DEKCIG
_database_code_depnum_ccdc_archive 'CCDC 287108'
_chemical_formula_sum 'C15 H18 Gd1 N1'
_chemical_formula_moiety
;
C15 H18 Gd1 N1
;
_journal_coden_Cambridge 1220
_journal_volume 12
_journal_year 2006
_journal_page_first 4785
_journal_name_full 'Chem.-Eur.J. '
loop_
_publ_author_name
"U.Baisch"
"S.Pagano"
"M.Zeuner"
"N.Barros"
"L.Maron"
"W.Schnick"
_chemical_name_systematic
;
Ammine-tris(\h^5^-cyclopentadienyl)-gadolinium(iii)
;
_chemical_melting_point ?
_cell_volume   2881.535
_exptl_crystal_colour 'colorless'
_exptl_crystal_density_diffrn 1.704
_exptl_special_details
;
Sublimes at 463.15K

;
_exptl_crystal_description 'block'
_diffrn_ambient_temperature 293
#These two values have been output from a single CSD field.
_refine_ls_R_factor_gt 0.0418
_refine_ls_wR_factor_gt 0.0418
_symmetry_cell_setting cubic
_symmetry_space_group_name_H-M 'P a -3'
_symmetry_Int_Tables_number 205
loop_
_symmetry_equiv_pos_site_id
_symmetry_equiv_pos_as_xyz
1 x,y,z
2 z,x,y
3 y,z,x
4 1/2-x,-y,1/2+z
5 -x,1/2+y,1/2-z
6 1/2+x,1/2-y,-z
7 1/2+z,1/2-x,-y
8 1/2-z,-x,1/2+y
9 -z,1/2+x,1/2-y
10 -y,1/2+z,1/2-x
11 1/2+y,1/2-z,-x
12 1/2-y,-z,1/2+x
13 -x,-y,-z
14 -z,-x,-y
15 -y,-z,-x
16 -1/2+x,y,-1/2-z
17 x,-1/2-y,-1/2+z
18 -1/2-x,-1/2+y,z
19 -1/2-z,-1/2+x,y
20 -1/2+z,x,-1/2-y
21 z,-1/2-x,-1/2+y
22 y,-1/2-z,-1/2+x
23 -1/2-y,-1/2+z,x
24 -1/2+y,z,-1/2-x
_cell_length_a 14.2301(16)
_cell_length_b 14.2301(16)
_cell_length_c 14.2301(16)
_cell_angle_alpha 90
_cell_angle_beta 90
_cell_angle_gamma 90
_cell_formula_units_Z 8
loop_
_atom_type_symbol
_atom_type_radius_bond
C 0.68
H 0.23
Gd 1.79
N 0.68
loop_
_atom_site_label
_atom_site_type_symbol
_atom_site_fract_x
_atom_site_fract_y
_atom_site_fract_z
Gd1 Gd 0.13935(2) 1.13935(2) 0.13935(2)
N1 N 0.2407(6) 1.2407(6) 0.2407(6)
H1 H 0.24410 1.21580 0.29870
C1 C 0.2099(12) 0.9678(8) 0.1029(11)
H2 H 0.21960 0.95550 0.03950
C2 C 0.1293(8) 0.9496(7) 0.1525(13)
H3 H 0.07480 0.92270 0.12850
C3 C 0.1433(12) 0.9779(9) 0.2434(11)
H4 H 0.09990 0.97360 0.29210
C4 C 0.2325(14) 1.0135(9) 0.2501(10)
H5 H 0.26020 1.03770 0.30410
C5 C 0.2736(8) 1.0073(9) 0.1633(14)
H6 H 0.33420 1.02650 0.14800
H1A H 0.29870 1.24410 0.21580
H1B H 0.21580 1.29870 0.24410
C1A C 0.1029(12) 1.2099(8) -0.0322(11)
C1B C -0.0322(12) 1.1029(8) 0.2099(11)
H2A H 0.03950 1.21960 -0.04450
H2B H -0.04450 1.03950 0.21960
C2A C 0.1525(8) 1.1293(7) -0.0504(13)
C2B C -0.0504(8) 1.1525(7) 0.1293(13)
H3A H 0.12850 1.07480 -0.07730
H3B H -0.07730 1.12850 0.07480
C3A C 0.2434(12) 1.1433(9) -0.0221(11)
C3B C -0.0221(12) 1.2434(9) 0.1433(11)
H4A H 0.29210 1.09990 -0.02640
H4B H -0.02640 1.29210 0.09990
C4A C 0.2501(14) 1.2325(9) 0.0135(10)
C4B C 0.0135(14) 1.2501(9) 0.2325(10)
H5A H 0.30410 1.26020 0.03770
H5B H 0.03770 1.30410 0.26020
C5A C 0.1633(8) 1.2736(9) 0.0073(14)
C5B C 0.0073(8) 1.1633(9) 0.2736(14)
H6A H 0.14800 1.33420 0.02650
H6B H 0.02650 1.14800 0.33420
#END

data_CSD_CIF_DEKCIG01
_audit_creation_date 2006-09-26
_audit_creation_method CSD-ConQuest-V1
_database_code_CSD DEKCIG01
_database_code_depnum_ccdc_archive 'CCDC 287109'
_chemical_formula_sum 'C15 H18 Gd1 N1'
_chemical_formula_moiety
;
C15 H18 Gd1 N1
;
_journal_coden_Cambridge 1220
_journal_volume 12
_journal_year 2006
_journal_page_first 4785
_journal_name_full 'Chem.-Eur.J. '
loop_
_publ_author_name
"U.Baisch"
"S.Pagano"
"M.Zeuner"
"N.Barros"
"L.Maron"
"W.Schnick"
_chemical_name_systematic
;
Ammine-tris(\h^5^-cyclopentadienyl)-gadolinium(iii)
;
_chemical_melting_point ?
_cell_volume   2812.177
_exptl_crystal_colour 'colorless'
_exptl_crystal_density_diffrn 1.746
_exptl_special_details
;
Sublimes at 463.15K

;
_exptl_crystal_description 'block'
_diffrn_ambient_temperature 130
#These two values have been output from a single CSD field.
_refine_ls_R_factor_gt 0.0444
_refine_ls_wR_factor_gt 0.0444
_symmetry_cell_setting cubic
_symmetry_space_group_name_H-M 'P a -3'
_symmetry_Int_Tables_number 205
loop_
_symmetry_equiv_pos_site_id
_symmetry_equiv_pos_as_xyz
1 x,y,z
2 z,x,y
3 y,z,x
4 1/2-x,-y,1/2+z
5 -x,1/2+y,1/2-z
6 1/2+x,1/2-y,-z
7 1/2+z,1/2-x,-y
8 1/2-z,-x,1/2+y
9 -z,1/2+x,1/2-y
10 -y,1/2+z,1/2-x
11 1/2+y,1/2-z,-x
12 1/2-y,-z,1/2+x
13 -x,-y,-z
14 -z,-x,-y
15 -y,-z,-x
16 -1/2+x,y,-1/2-z
17 x,-1/2-y,-1/2+z
18 -1/2-x,-1/2+y,z
19 -1/2-z,-1/2+x,y
20 -1/2+z,x,-1/2-y
21 z,-1/2-x,-1/2+y
22 y,-1/2-z,-1/2+x
23 -1/2-y,-1/2+z,x
24 -1/2+y,z,-1/2-x
_cell_length_a 14.1150(16)
_cell_length_b 14.1150(16)
_cell_length_c 14.1150(16)
_cell_angle_alpha 90
_cell_angle_beta 90
_cell_angle_gamma 90
_cell_formula_units_Z 8
loop_
_atom_type_symbol
_atom_type_radius_bond
C 0.68
H 0.23
Gd 1.79
N 0.68
loop_
_atom_site_label
_atom_site_type_symbol
_atom_site_fract_x
_atom_site_fract_y
_atom_site_fract_z
Gd1 Gd 0.86164(2) 0.36164(2) 0.13836(2)
N1 N 0.7598(6) 0.2598(6) 0.2402(6)
H1 H 0.707(5) 0.254(6) 0.216(3)
C1 C 0.8708(9) 0.5537(7) 0.1535(12)
H2 H 0.92800 0.58000 0.13390
C2 C 0.8548(9) 0.5267(10) 0.2425(12)
H3 H 0.89790 0.53210 0.29220
C3 C 0.7907(9) 0.5387(7) 0.0888(14)
H4 H 0.78470 0.55340 0.02480
C4 C 0.7651(9) 0.4895(9) 0.2499(11)
H5 H 0.73700 0.46620 0.30480
C5 C 0.7214(8) 0.4931(9) 0.1551(11)
H6 H 0.66140 0.47100 0.13920
H1H H 0.784(5) 0.207(6) 0.246(3)
H1J H 0.754(5) 0.284(6) 0.293(3)
C1H C 0.8465(9) 0.3708(7) -0.0537(12)
C1J C 1.0537(9) 0.3465(7) 0.1292(12)
H2H H 0.86610 0.42800 -0.08000
H2J H 1.08000 0.36610 0.07200
C2H C 0.7575(9) 0.3548(10) -0.0267(12)
C2J C 1.0267(9) 0.2575(10) 0.1452(12)
H3H H 0.70780 0.39790 -0.03210
H3J H 1.03210 0.20780 0.10210
C3H C 0.9112(9) 0.2907(7) -0.0387(14)
C3J C 1.0387(9) 0.4112(7) 0.2093(14)
H4H H 0.97520 0.28470 -0.05340
H4J H 1.05340 0.47520 0.21530
C4H C 0.7501(9) 0.2651(9) 0.0105(11)
C4J C 0.9895(9) 0.2501(9) 0.2349(11)
H5H H 0.69520 0.23700 0.03380
H5J H 0.96620 0.19520 0.26300
C5H C 0.8449(8) 0.2214(9) 0.0069(11)
C5J C 0.9931(8) 0.3449(9) 0.2786(11)
H6H H 0.86080 0.16140 0.02900
H6J H 0.97100 0.36080 0.33860
#END

data_CSD_CIF_DIVZOX
_audit_creation_date 1987-02-04
_audit_creation_method CSD-ConQuest-V1
_database_code_CSD DIVZOX
_database_code_depnum_ccdc_archive 'CCDC 1141963'
_chemical_formula_sum 'C12 H18 Co2 O6 P2'
_chemical_formula_moiety
;
C12 H18 Co2 O6 P2
;
_journal_coeditor_code "IUCr A25709"
_journal_coden_Cambridge 591
_journal_volume 42
_journal_year 1986
_journal_page_first 399
_journal_name_full 'Acta Crystallogr.,Sect.C:Cryst.Struct.Commun. '
loop_
_publ_author_name
"R.A.Jones"
"M.H.Seeberger"
"A.L.Stuart"
"B.R.Whittlesey"
"T.C.Wright"
_chemical_name_systematic
;
bis(Tricarbonyl-(trimethylphosphine)-cobalt)
;
_cell_volume   1931.595
_exptl_crystal_colour 'red'
_exptl_crystal_density_diffrn 1.507
_diffrn_ambient_temperature ?
_diffrn_special_details
;
The study was carried out at room temperature,in the range 283-303K

;
#These two values have been output from a single CSD field.
_refine_ls_R_factor_gt 0.0272
_refine_ls_wR_factor_gt 0.0272
_symmetry_cell_setting cubic
_symmetry_space_group_name_H-M 'P a 3'
_symmetry_Int_Tables_number 205
loop_
_symmetry_equiv_pos_site_id
_symmetry_equiv_pos_as_xyz
1 x,y,z
2 z,x,y
3 y,z,x
4 -x,1/2+y,1/2-z
5 -z,1/2+x,1/2-y
6 -y,1/2+z,1/2-x
7 1/2-x,-y,1/2+z
8 1/2-z,-x,1/2+y
9 1/2-y,-z,1/2+x
10 1/2+x,1/2-y,-z
11 1/2+z,1/2-x,-y
12 1/2+y,1/2-z,-x
13 -x,-y,-z
14 -z,-x,-y
15 -y,-z,-x
16 x,-1/2-y,-1/2+z
17 z,-1/2-x,-1/2+y
18 y,-1/2-z,-1/2+x
19 -1/2+x,y,-1/2-z
20 -1/2+z,x,-1/2-y
21 -1/2+y,z,-1/2-x
22 -1/2-x,-1/2+y,z
23 -1/2-z,-1/2+x,y
24 -1/2-y,-1/2+z,x
_cell_length_a 12.4539(18)
_cell_length_b 12.4539(18)
_cell_length_c 12.4539(18)
_cell_angle_alpha 90
_cell_angle_beta 90
_cell_angle_gamma 90
_cell_formula_units_Z 4
loop_
_atom_type_symbol
_atom_type_radius_bond
C 0.68
H 0.23
Co 1.33
O 0.68
P 1.05
loop_
_atom_site_label
_atom_site_type_symbol
_atom_site_fract_x
_atom_site_fract_y
_atom_site_fract_z
Co1 Co 0.06191(3) 0.06191 0.06191
P1 P 0.16281(6) 0.16281 0.16281
O1 O 0.2216(2) 0.0567(2) -0.1086(2)
C1 C 0.1573(3) 0.0575(3) -0.0436(3)
C2 C 0.1692(3) 0.3024(3) 0.1226(3)
H1 H 0.209(2) 0.339(2) 0.172(3)
H2 H 0.091(3) 0.335(3) 0.130(3)
H3 H 0.197(3) 0.306(3) 0.053(3)
Co1L Co -0.06191(3) -0.06191 -0.06191
C1A C -0.0436(3) 0.1573(3) 0.0575(3)
C1B C 0.0575(3) -0.0436(3) 0.1573(3)
C2A C 0.1226(3) 0.1692(3) 0.3024(3)
C2B C 0.3024(3) 0.1226(3) 0.1692(3)
P1L P -0.16281(6) -0.16281 -0.16281
C1L C -0.1573(3) -0.0575(3) 0.0436(3)
C1M C 0.0436(3) -0.1573(3) -0.0575(3)
C1N C -0.0575(3) 0.0436(3) -0.1573(3)
O1A O -0.1086(2) 0.2216(2) 0.0567(2)
O1B O 0.0567(2) -0.1086(2) 0.2216(2)
H1A H 0.172(2) 0.209(2) 0.339(3)
H2A H 0.130(3) 0.091(3) 0.335(3)
H3A H 0.053(3) 0.197(3) 0.306(3)
H1B H 0.339(2) 0.172(2) 0.209(3)
H2B H 0.335(3) 0.130(3) 0.091(3)
H3B H 0.306(3) 0.053(3) 0.197(3)
C2L C -0.1692(3) -0.3024(3) -0.1226(3)
C2M C -0.1226(3) -0.1692(3) -0.3024(3)
C2N C -0.3024(3) -0.1226(3) -0.1692(3)
O1L O -0.2216(2) -0.0567(2) 0.1086(2)
O1M O 0.1086(2) -0.2216(2) -0.0567(2)
O1N O -0.0567(2) 0.1086(2) -0.2216(2)
H1L H -0.209(2) -0.339(2) -0.172(3)
H2L H -0.091(3) -0.335(3) -0.130(3)
H3L H -0.197(3) -0.306(3) -0.053(3)
H1M H -0.172(2) -0.209(2) -0.339(3)
H2M H -0.130(3) -0.091(3) -0.335(3)
H3M H -0.053(3) -0.197(3) -0.306(3)
H1N H -0.339(2) -0.172(2) -0.209(3)
H2N H -0.335(3) -0.130(3) -0.091(3)
H3N H -0.306(3) -0.053(3) -0.197(3)
#END

data_CSD_CIF_DIYGOH
_audit_creation_date 1987-02-04
_audit_creation_method CSD-ConQuest-V1
_database_code_CSD DIYGOH
_database_code_depnum_ccdc_archive 'CCDC 1142189'
_chemical_formula_sum 'C6 H20 I6 N2 Te1'
_chemical_formula_moiety
;
2(C3 H10 N1 1+),I6 Te1 2-
;
_journal_coden_Cambridge 7
_journal_volume 59
_journal_year 1986
_journal_page_first 581
_journal_name_full 'Bull.Chem.Soc.Jpn. '
loop_
_publ_author_name
"H.Kiriyama"
"Y.Mizuhashi"
"J.Ootani"
_chemical_name_systematic
;
bis(Trimethylammonium) hexaiodo-tellurium(iv)
;
_cell_volume   2305.199
_exptl_crystal_colour 'black'
_exptl_crystal_density_diffrn 2.91
_diffrn_ambient_temperature ?
_diffrn_special_details
;
The study was carried out at room temperature,in the range 283-303K

;
#These two values have been output from a single CSD field.
_refine_ls_R_factor_gt 0.04
_refine_ls_wR_factor_gt 0.04
_symmetry_cell_setting cubic
_symmetry_space_group_name_H-M 'P a 3'
_symmetry_Int_Tables_number 205
loop_
_symmetry_equiv_pos_site_id
_symmetry_equiv_pos_as_xyz
1 x,y,z
2 z,x,y
3 y,z,x
4 -x,1/2+y,1/2-z
5 -z,1/2+x,1/2-y
6 -y,1/2+z,1/2-x
7 1/2-x,-y,1/2+z
8 1/2-z,-x,1/2+y
9 1/2-y,-z,1/2+x
10 1/2+x,1/2-y,-z
11 1/2+z,1/2-x,-y
12 1/2+y,1/2-z,-x
13 -x,-y,-z
14 -z,-x,-y
15 -y,-z,-x
16 x,-1/2-y,-1/2+z
17 z,-1/2-x,-1/2+y
18 y,-1/2-z,-1/2+x
19 -1/2+x,y,-1/2-z
20 -1/2+z,x,-1/2-y
21 -1/2+y,z,-1/2-x
22 -1/2-x,-1/2+y,z
23 -1/2-z,-1/2+x,y
24 -1/2-y,-1/2+z,x
_cell_length_a 13.210(2)
_cell_length_b 13.210(2)
_cell_length_c 13.210(2)
_cell_angle_alpha 90
_cell_angle_beta 90
_cell_angle_gamma 90
_cell_formula_units_Z 4
loop_
_atom_type_symbol
_atom_type_radius_bond
C 0.68
I 1.40
N 0.68
Te 1.47
loop_
_atom_site_label
_atom_site_type_symbol
_atom_site_fract_x
_atom_site_fract_y
_atom_site_fract_z
Te1 Te 0.00000 0.00000 0.00000
I1 I 0.0326(2) -0.0281(2) 0.2193(2)
N1 N 0.2071(24) 0.2071(24) 0.2071(24)
C1 C 0.2184(25) 0.3094(24) 0.1576(27)
I1L I -0.0326(2) 0.0281(2) -0.2193(2)
I1A I 0.2193(2) 0.0326(2) -0.0281(2)
I1M I -0.2193(2) -0.0326(2) 0.0281(2)
I1B I -0.0281(2) 0.2193(2) 0.0326(2)
I1N I 0.0281(2) -0.2193(2) -0.0326(2)
C1A C 0.1576(25) 0.2184(24) 0.3094(27)
C1B C 0.3094(25) 0.1576(24) 0.2184(27)
#END

data_CSD_CIF_DTFMHG02
_audit_creation_date 1978-01-11
_audit_creation_method CSD-ConQuest-V1
_database_code_CSD DTFMHG02
_database_code_depnum_ccdc_archive 'CCDC 1145549'
_chemical_formula_sum 'C2 F6 Hg1'
_chemical_formula_moiety
;
C2 F6 Hg1
;
_journal_coden_Cambridge 36
_journal_volume 135
_journal_year 1977
_journal_page_first 281
_journal_name_full 'J.Organomet.Chem. '
loop_
_publ_author_name
"D.J.Brauer"
"H.Burger"
"R.Eujen"
_chemical_name_systematic
;
bis(Trifluoromethyl)-mercury
;
_chemical_name_common
;
Teaching Subset: Fundamental Chemistry, Symmetry
;
_cell_volume    536.773
_exptl_crystal_density_diffrn 4.19
_diffrn_ambient_temperature ?
_diffrn_special_details
;
The study was carried out at room temperature,in the range 283-303K

;
#These two values have been output from a single CSD field.
_refine_ls_R_factor_gt 0.023
_refine_ls_wR_factor_gt 0.023
_symmetry_cell_setting cubic
_symmetry_space_group_name_H-M 'P a 3'
_symmetry_Int_Tables_number 205
loop_
_symmetry_equiv_pos_site_id
_symmetry_equiv_pos_as_xyz
1 x,y,z
2 z,x,y
3 y,z,x
4 -x,1/2+y,1/2-z
5 -z,1/2+x,1/2-y
6 -y,1/2+z,1/2-x
7 1/2-x,-y,1/2+z
8 1/2-z,-x,1/2+y
9 1/2-y,-z,1/2+x
10 1/2+x,1/2-y,-z
11 1/2+z,1/2-x,-y
12 1/2+y,1/2-z,-x
13 -x,-y,-z
14 -z,-x,-y
15 -y,-z,-x
16 x,-1/2-y,-1/2+z
17 z,-1/2-x,-1/2+y
18 y,-1/2-z,-1/2+x
19 -1/2+x,y,-1/2-z
20 -1/2+z,x,-1/2-y
21 -1/2+y,z,-1/2-x
22 -1/2-x,-1/2+y,z
23 -1/2-z,-1/2+x,y
24 -1/2-y,-1/2+z,x
_cell_length_a 8.127(2)
_cell_length_b 8.127(2)
_cell_length_c 8.127(2)
_cell_angle_alpha 90
_cell_angle_beta 90
_cell_angle_gamma 90
_cell_formula_units_Z 4
loop_
_atom_type_symbol
_atom_type_radius_bond
C 0.68
F 0.64
Hg 1.70
loop_
_atom_site_label
_atom_site_type_symbol
_atom_site_fract_x
_atom_site_fract_y
_atom_site_fract_z
Hg1 Hg 0.00000 0.00000 0.00000
C1 C 0.14990 0.14990 0.14990
F1 F 0.08180 0.29510 0.17660
C1L C -0.14990 -0.14990 -0.14990
F1A F 0.17660 0.08180 0.29510
F1B F 0.29510 0.17660 0.08180
F1L F -0.08180 -0.29510 -0.17660
F1M F -0.17660 -0.08180 -0.29510
F1N F -0.29510 -0.17660 -0.08180
#END

data_CSD_CIF_DUZZON
_audit_creation_date 1987-06-30
_audit_creation_method CSD-ConQuest-V1
_database_code_CSD DUZZON
_chemical_formula_sum 'C24 H60 Cl3 Fe7 P4 S6'
_chemical_formula_moiety
;
C24 H60 Cl3 Fe7 P4 S6
;
_journal_coden_Cambridge 9
_journal_volume 25
_journal_year 1986
_journal_page_first 3851
_journal_name_full 'Inorg.Chem. '
loop_
_publ_author_name
"I.Noda"
"B.S.Snyder"
"R.H.Holm"
_chemical_name_systematic
;
Trichloro-tris(\m~4~-sulfido)-tris(\m~3~-sulfido)-tetrakis(triethylphosphine-P
)-hepta-iron
;
_cell_volume   9054.838
_exptl_crystal_colour 'black'
_exptl_special_details
;
sg given as Pa-3 in paper

;
_diffrn_ambient_temperature ?
_diffrn_special_details
;
The study was carried out at room temperature,in the range 283-303K

;
#These two values have been output from a single CSD field.
_refine_ls_R_factor_gt 0.048
_refine_ls_wR_factor_gt 0.048
_symmetry_cell_setting cubic
_symmetry_space_group_name_H-M 'P a 3'
_symmetry_Int_Tables_number 205
loop_
_symmetry_equiv_pos_site_id
_symmetry_equiv_pos_as_xyz
1 x,y,z
2 z,x,y
3 y,z,x
4 1/2+x,y,1/2-z
5 1/2+z,x,1/2-y
6 1/2+y,z,1/2-x
7 1/2-x,1/2+y,z
8 1/2-z,1/2+x,y
9 1/2-y,1/2+z,x
10 -x,1/2+y,1/2-z
11 -z,1/2+x,1/2-y
12 -y,1/2+z,1/2-x
13 -x,-y,-z
14 -z,-x,-y
15 -y,-z,-x
16 -1/2-x,-y,-1/2+z
17 -1/2-z,-x,-1/2+y
18 -1/2-y,-z,-1/2+x
19 -1/2+x,-1/2-y,-z
20 -1/2+z,-1/2-x,-y
21 -1/2+y,-1/2-z,-x
22 x,-1/2-y,-1/2+z
23 z,-1/2-x,-1/2+y
24 y,-1/2-z,-1/2+x
_cell_length_a 20.843(4)
_cell_length_b 20.843(4)
_cell_length_c 20.843(4)
_cell_angle_alpha 90
_cell_angle_beta 90
_cell_angle_gamma 90
_cell_formula_units_Z 8
loop_
_atom_type_symbol
_atom_type_radius_bond
C 0.68
Cl 0.99
Fe 1.09
P 1.05
S 1.02
loop_
_atom_site_label
_atom_site_type_symbol
_atom_site_fract_x
_atom_site_fract_y
_atom_site_fract_z
Fe1 Fe 0.19411(6) 0.19411(6) 0.19411(6)
P1 P 0.2577(1) 0.2577(1) 0.2577(1)
Fe2 Fe 0.08699(5) 0.09933(6) 0.18571(6)
Fe3 Fe 0.20434(7) 0.07404(6) 0.22326(6)
S1 S 0.1404(1) 0.0136(1) 0.1585(1)
S2 S 0.1330(1) 0.1503(1) 0.2678(1)
P2 P 0.0131(1) 0.0396(1) 0.2409(1)
Cl1 Cl 0.2590(2) 0.0201(2) 0.2949(2)
C1 C 0.2167(8) 0.2999(8) 0.3199(9)
C2 C 0.1766(15) 0.3497(10) 0.3061(16)
C3 C -0.0238(7) -0.0242(7) 0.1959(8)
C4 C -0.0571(10) -0.0042(9) 0.1430(11)
C5 C -0.0556(5) 0.0801(6) 0.2746(5)
C6 C -0.0407(6) 0.1290(8) 0.3230(7)
C7 C 0.0482(8) -0.0057(7) 0.3052(7)
C8 C 0.0154(21) -0.0446(14) 0.3429(15)
S2A S 0.2678(1) 0.1330(1) 0.1503(1)
S2B S 0.1503(1) 0.2678(1) 0.1330(1)
C1A C 0.3199(8) 0.2167(8) 0.2999(9)
C1B C 0.2999(8) 0.3199(8) 0.2167(9)
Fe3B Fe 0.07404(7) 0.22326(6) 0.20434(6)
S1B S 0.0136(1) 0.1585(1) 0.1404(1)
Fe2A Fe 0.18571(5) 0.08699(6) 0.09933(6)
Fe3A Fe 0.22326(7) 0.20434(6) 0.07404(6)
Fe2B Fe 0.09933(5) 0.18571(6) 0.08699(6)
C2A C 0.3061(15) 0.1766(10) 0.3497(16)
C2B C 0.3497(15) 0.3061(10) 0.1766(16)
Cl1B Cl 0.0201(2) 0.2949(2) 0.2590(2)
S1A S 0.1585(1) 0.1404(1) 0.0136(1)
P2A P 0.2409(1) 0.0131(1) 0.0396(1)
Cl1A Cl 0.2949(2) 0.2590(2) 0.0201(2)
P2B P 0.0396(1) 0.2409(1) 0.0131(1)
C3A C 0.1959(7) -0.0238(7) -0.0242(8)
C5A C 0.2746(5) -0.0556(6) 0.0801(5)
C7A C 0.3052(8) 0.0482(7) -0.0057(7)
C3B C -0.0242(7) 0.1959(7) -0.0238(8)
C5B C 0.0801(5) 0.2746(6) -0.0556(5)
C7B C -0.0057(8) 0.3052(7) 0.0482(7)
C4A C 0.143(1) -0.0571(9) -0.0042(11)
C6A C 0.3230(6) -0.0407(8) 0.1290(7)
C8A C 0.3429(21) 0.0154(14) -0.0446(15)
C4B C -0.0042(10) 0.1430(9) -0.0571(11)
C6B C 0.1290(6) 0.3230(8) -0.0407(7)
C8B C -0.0446(21) 0.3429(14) 0.0154(15)
#END

data_CSD_CIF_EBUNIB
_audit_creation_date 2016-12-01
_audit_creation_method CSD-ConQuest-V1
_database_code_CSD EBUNIB
_database_code_depnum_ccdc_archive 'CCDC 1501637'
_chemical_formula_sum 'C89.42 H141.7 Cl3 Ir3 N12 O5.42 Si3'
_chemical_formula_moiety
;
C84 H120 Cl3 Ir3 N12 Si3,5.42(C1 H4 O1)
;
_journal_coden_Cambridge 182
_journal_volume 52
_journal_year 2016
_journal_page_first 14482
_journal_name_full 'Chem.Commun. '
loop_
_publ_author_name
"A.M.Olaru"
"A.Burt"
"P.J.Rayner"
"S.J.Hart"
"A.C.Whitwood"
"G.G.R.Green"
"S.B.Duckett"
_chemical_name_systematic
;
tris(\m-5-(trimethylsilyl)pyrimidine)-trichloro-tris(1,3-dimesitylimidazolidin
-2-ylidene)-hexahydrido-tri-iridium methanol solvate
;
_cell_volume  21917.561
_exptl_crystal_colour 'yellow'
_exptl_crystal_density_diffrn 1.357
_exptl_crystal_description 'block'
_exptl_crystal_preparation 'd4-methanol'
_diffrn_ambient_temperature 110.0
#These two values have been output from a single CSD field.
_refine_ls_R_factor_gt 0.0439
_refine_ls_wR_factor_gt 0.0439
_symmetry_cell_setting cubic
_symmetry_space_group_name_H-M 'P a -3'
_symmetry_Int_Tables_number 205
loop_
_symmetry_equiv_pos_site_id
_symmetry_equiv_pos_as_xyz
1 x,y,z
2 z,x,y
3 y,z,x
4 1/2-y,-z,1/2+x
5 1/2+z,1/2-x,-y
6 -y,1/2+z,1/2-x
7 1/2-z,-x,1/2+y
8 -z,1/2+x,1/2-y
9 1/2+y,1/2-z,-x
10 1/2-x,-y,1/2+z
11 1/2+x,1/2-y,-z
12 -x,1/2+y,1/2-z
13 -x,-y,-z
14 -z,-x,-y
15 -y,-z,-x
16 -1/2+y,z,-1/2-x
17 -1/2-z,-1/2+x,y
18 y,-1/2-z,-1/2+x
19 -1/2+z,x,-1/2-y
20 z,-1/2-x,-1/2+y
21 -1/2-y,-1/2+z,x
22 -1/2+x,y,-1/2-z
23 -1/2-x,-1/2+y,z
24 x,-1/2-y,-1/2+z
_cell_length_a 27.98535(15)
_cell_length_b 27.98535(15)
_cell_length_c 27.98535(15)
_cell_angle_alpha 90
_cell_angle_beta 90
_cell_angle_gamma 90
_cell_formula_units_Z 8
loop_
_atom_type_symbol
_atom_type_radius_bond
C 0.68
H 0.23
Cl 0.99
Ir 1.41
N 0.68
O 0.68
Si 1.20
loop_
_atom_site_label
_atom_site_type_symbol
_atom_site_fract_x
_atom_site_fract_y
_atom_site_fract_z
C1 C 0.31738(18) 0.66392(18) 0.30636(17)
H1 H 0.31280 0.63110 0.30920
C2 C 0.36054(18) 0.68031(18) 0.28786(19)
C3 C 0.36442(17) 0.72980(17) 0.28435(18)
H2 H 0.39250 0.74270 0.27220
C4 C 0.28944(17) 0.74001(17) 0.31581(17)
H3 H 0.26550 0.76080 0.32580
C5 C 0.3859(3) 0.5787(3) 0.2582(4)
H4 H 0.36640 0.58070 0.23000
H5 H 0.36670 0.56800 0.28460
H6 H 0.41140 0.55640 0.25290
C6 C 0.4513(3) 0.6342(3) 0.3247(3)
H7 H 0.43510 0.61790 0.35010
H8 H 0.46000 0.66570 0.33510
H9 H 0.47960 0.61680 0.31610
C7 C 0.4444(3) 0.6635(4) 0.2207(4)
H10 H 0.45420 0.69560 0.22790
H11 H 0.42430 0.66360 0.19300
H12 H 0.47210 0.64420 0.21460
C8 C 0.20662(17) 0.66333(16) 0.40650(16)
C9 C 0.1769(2) 0.6534(2) 0.48573(18)
H13 H 0.17040 0.62480 0.50420
H14 H 0.15650 0.67910 0.49690
C10 C 0.2293(2) 0.6672(3) 0.48824(19)
H15 H 0.23410 0.69480 0.50870
H16 H 0.24870 0.64090 0.49970
C11 C 0.12624(18) 0.62424(19) 0.41970(17)
C12 C 0.1214(2) 0.5746(2) 0.42200(18)
C13 C 0.0770(2) 0.5543(2) 0.41156(19)
H17 H 0.07340 0.52130 0.41320
C14 C 0.0383(2) 0.5821(2) 0.3989(2)
C15 C 0.0434(2) 0.6319(2) 0.3990(2)
H18 H 0.01710 0.65100 0.39180
C16 C 0.08700(19) 0.65357(19) 0.40983(18)
C17 C 0.1633(2) 0.5438(2) 0.4366(2)
H19 H 0.15480 0.51070 0.43330
H20 H 0.17150 0.55030 0.46920
H21 H 0.19010 0.55070 0.41640
C18 C -0.0083(2) 0.5592(3) 0.3838(3)
H22 H -0.00710 0.55180 0.35030
H23 H -0.03420 0.58090 0.38980
H24 H -0.01330 0.53040 0.40170
C19 C 0.0919(2) 0.7071(2) 0.4106(2)
H25 H 0.06180 0.72150 0.40270
H26 H 0.11550 0.71680 0.38770
H27 H 0.10150 0.71720 0.44200
C20 C 0.28345(18) 0.7033(2) 0.42841(17)
C21 C 0.28279(18) 0.7533(2) 0.42930(18)
C22 C 0.32545(18) 0.77746(19) 0.42288(18)
H28 H 0.32560 0.81070 0.42350
C23 C 0.36834(18) 0.75295(19) 0.41553(18)
C24 C 0.36774(19) 0.7031(2) 0.4160(2)
H29 H 0.39630 0.68650 0.41180
C25 C 0.32579(19) 0.6776(2) 0.42263(19)
C26 C 0.2365(2) 0.7802(2) 0.4379(3)
H30 H 0.24150 0.81360 0.43220
H31 H 0.22640 0.77550 0.47040
H32 H 0.21230 0.76840 0.41660
C27 C 0.4139(2) 0.7800(2) 0.4057(2)
H33 H 0.41460 0.80850 0.42490
H34 H 0.41520 0.78860 0.37250
H35 H 0.44080 0.76030 0.41350
C28 C 0.3257(2) 0.6237(2) 0.4232(2)
H36 H 0.30080 0.61210 0.40270
H37 H 0.32030 0.61260 0.45520
H38 H 0.35600 0.61210 0.41200
Cl1 Cl 0.23673(4) 0.58048(4) 0.33061(4)
Ir1 Ir 0.20828(2) 0.66590(2) 0.33647(2)
H39 H 0.192(2) 0.712(2) 0.340(2)
H40 H 0.159(3) 0.651(3) 0.340(3)
N1 N 0.28189(15) 0.69321(14) 0.32033(15)
N2 N 0.33010(13) 0.75900(14) 0.29745(13)
N3 N 0.17045(15) 0.64490(16) 0.43420(14)
N4 N 0.23994(16) 0.67849(17) 0.43834(15)
Si1 Si 0.41117(6) 0.63864(6) 0.27201(7)
C29 C 0.1608(3) 0.8392(3) 0.3392(3)
H41 H 0.19380 0.84690 0.34470
O1 O 0.1325(3) 0.8675(3) 0.3675(3)
H42 H 0.12630 0.85340 0.39250
C30 C 0.1321(7) 0.8443(7) 0.4933(5)
H43 H 0.13770 0.81810 0.51460
H44 H 0.11490 0.86900 0.50990
H45 H 0.16210 0.85670 0.48230
O2 O 0.1046(9) 0.8284(7) 0.4536(7)
H46 H 0.08430 0.80930 0.46270
C31 C 0.0020(8) 0.7796(7) 0.5028(7)
H47 H 0.01660 0.75130 0.48990
H48 H -0.03180 0.77470 0.50570
H49 H 0.01530 0.78620 0.53370
O3 O 0.0105(6) 0.8172(7) 0.4731(6)
H50 H -0.00720 0.83940 0.48030
H51? H 0.19380 0.84690 0.34470
H52? H 0.19380 0.84690 0.34470
C1E C 0.33608(18) 0.80636(18) 0.18262(17)
H1E H 0.36890 0.80920 0.18720
C2E C 0.31969(18) 0.78786(18) 0.13946(19)
C3E C 0.27020(17) 0.78435(17) 0.13558(18)
H2E H 0.25730 0.77220 0.10750
C4E C 0.25999(17) 0.81581(17) 0.21056(17)
H3E H 0.23920 0.82580 0.23450
C5E C 0.4213(3) 0.7582(3) 0.1141(4)
H4E H 0.41930 0.73000 0.13360
H5E H 0.43200 0.78460 0.13330
H6E H 0.44360 0.75290 0.08860
C6E C 0.3658(3) 0.8247(3) 0.0487(3)
H7E H 0.38210 0.85010 0.06490
H8E H 0.33430 0.83510 0.04000
H9E H 0.38320 0.81610 0.02040
C7E C 0.3365(3) 0.7207(4) 0.0556(4)
H10E H 0.30440 0.72790 0.04580
H11E H 0.33640 0.69300 0.07570
H12E H 0.35580 0.71460 0.02790
C8E C 0.33667(17) 0.90650(16) 0.29338(16)
C9E C 0.3466(2) 0.98573(20) 0.32310(18)
H13E H 0.37520 1.00420 0.32960
H14E H 0.32090 0.99690 0.34350
C10E C 0.3328(2) 0.98824(30) 0.27070(19)
H15E H 0.30520 1.00870 0.26590
H16E H 0.35910 0.99970 0.25130
C11E C 0.37576(18) 0.91970(19) 0.37376(17)
C12E C 0.4254(2) 0.9220(2) 0.37860(18)
C13E C 0.4457(2) 0.91156(20) 0.42300(19)
H17E H 0.47870 0.91320 0.42660
C14E C 0.4179(2) 0.8989(2) 0.4617(2)
C15E C 0.3681(2) 0.8990(2) 0.4566(2)
H18E H 0.34900 0.89180 0.48290
C16E C 0.34643(19) 0.90983(19) 0.41300(18)
C17E C 0.4562(2) 0.9366(2) 0.3367(2)
H19E H 0.48930 0.93330 0.34520
H20E H 0.44970 0.96920 0.32850
H21E H 0.44930 0.91640 0.30990
C18E C 0.4408(2) 0.8838(3) 0.5083(3)
H22E H 0.44820 0.85030 0.50710
H23E H 0.41910 0.88980 0.53420
H24E H 0.46960 0.90170 0.51330
C19E C 0.2929(2) 0.9106(2) 0.4081(2)
H25E H 0.27850 0.90270 0.43820
H26E H 0.28320 0.88770 0.38450
H27E H 0.28280 0.94200 0.39850
C20E C 0.29670(18) 0.92841(20) 0.21655(17)
C21E C 0.24670(18) 0.9293(2) 0.21721(18)
C22E C 0.22254(18) 0.92288(19) 0.17455(18)
H28E H 0.18930 0.92350 0.17440
C23E C 0.24705(18) 0.91553(19) 0.13166(18)
C24E C 0.29690(19) 0.9160(2) 0.13226(20)
H29E H 0.31350 0.91180 0.10370
C25E C 0.32240(19) 0.92263(20) 0.17421(19)
C26E C 0.2198(2) 0.9379(2) 0.2635(3)
H30E H 0.18640 0.93220 0.25850
H31E H 0.22450 0.97040 0.27360
H32E H 0.23160 0.91660 0.28770
C27E C 0.2200(2) 0.9057(2) 0.0861(2)
H33E H 0.19150 0.92490 0.08540
H34E H 0.21140 0.87250 0.08480
H35E H 0.23970 0.91350 0.05920
C28E C 0.3763(2) 0.9232(2) 0.1743(2)
H36E H 0.38790 0.90270 0.19920
H37E H 0.38740 0.95520 0.17970
H38E H 0.38790 0.91200 0.14400
Cl1E Cl 0.41952(4) 0.83061(4) 0.26327(4)
Ir1E Ir 0.33410(2) 0.83647(2) 0.29172(2)
H39E H 0.288(2) 0.840(2) 0.308(2)
H40E H 0.349(3) 0.840(3) 0.341(3)
N1E N 0.30679(15) 0.82033(14) 0.21811(15)
N2E N 0.24100(13) 0.79745(14) 0.16990(13)
N3E N 0.35510(15) 0.93420(16) 0.32955(14)
N4E N 0.32151(16) 0.93834(17) 0.26006(15)
Si1E Si 0.36136(6) 0.77201(6) 0.08883(7)
C1F C 0.19364(18) 0.68262(18) 0.16392(17)
H1F H 0.19080 0.68720 0.13110
C2F C 0.21214(18) 0.63946(18) 0.18031(19)
C3F C 0.21565(17) 0.63558(17) 0.22980(18)
H2F H 0.22780 0.60750 0.24270
C4F C 0.18419(17) 0.71056(17) 0.24001(17)
H3F H 0.17420 0.73450 0.26080
C5F C 0.2418(3) 0.6141(3) 0.0787(4)
H4F H 0.27000 0.63360 0.08070
H5F H 0.21540 0.63330 0.06800
H6F H 0.24710 0.58860 0.05640
C6F C 0.1753(3) 0.5487(3) 0.1342(3)
H7F H 0.14990 0.56490 0.11790
H8F H 0.16490 0.54000 0.16570
H9F H 0.18390 0.52040 0.11680
C7F C 0.2793(3) 0.5556(4) 0.1635(4)
H10F H 0.27210 0.54580 0.19560
H11F H 0.30700 0.57570 0.16360
H12F H 0.28540 0.52790 0.14420
C8F C 0.09350(17) 0.79338(16) 0.16333(16)
C9F C 0.01427(20) 0.8231(2) 0.15340(18)
H13F H -0.00420 0.82960 0.12480
H14F H 0.00310 0.84350 0.17910
C10F C 0.01176(20) 0.7707(3) 0.16720(19)
H15F H -0.00870 0.76590 0.19480
H16F H 0.00030 0.75130 0.14090
C11F C 0.08030(18) 0.87376(19) 0.12424(17)
C12F C 0.0780(2) 0.8786(2) 0.07460(18)
C13F C 0.08844(20) 0.9230(2) 0.05430(19)
H17F H 0.08680 0.92660 0.02130
C14F C 0.1011(2) 0.9617(2) 0.0821(2)
C15F C 0.1010(2) 0.9566(2) 0.1319(2)
H18F H 0.10820 0.98290 0.15100
C16F C 0.09017(19) 0.91300(19) 0.15357(18)
C17F C 0.0634(2) 0.8367(2) 0.0438(2)
H19F H 0.06670 0.84520 0.01070
H20F H 0.03080 0.82850 0.05030
H21F H 0.08360 0.80990 0.05070
C18F C 0.1162(2) 1.0083(3) 0.0592(3)
H22F H 0.14970 1.00710 0.05180
H23F H 0.11020 1.03420 0.08090
H24F H 0.09830 1.01330 0.03040
C19F C 0.0894(2) 0.9081(2) 0.2071(2)
H25F H 0.09730 0.93820 0.22150
H26F H 0.11230 0.88450 0.21680
H27F H 0.05800 0.89850 0.21720
C20F C 0.07159(18) 0.71655(20) 0.20330(17)
C21F C 0.07070(18) 0.71721(20) 0.25330(18)
C22F C 0.07712(18) 0.67455(19) 0.27746(18)
H28F H 0.07650 0.67440 0.31070
C23F C 0.08447(18) 0.63166(19) 0.25295(18)
C24F C 0.08400(19) 0.63226(20) 0.2031(2)
H29F H 0.08820 0.60370 0.18650
C25F C 0.07737(19) 0.67421(20) 0.17760(19)
C26F C 0.0621(2) 0.7635(2) 0.2802(3)
H30F H 0.06780 0.75850 0.31360
H31F H 0.02960 0.77360 0.27550
H32F H 0.08340 0.78770 0.26840
C27F C 0.0943(2) 0.5861(2) 0.2800(2)
H33F H 0.07510 0.58540 0.30850
H34F H 0.12750 0.58480 0.28860
H35F H 0.08650 0.55920 0.26030
C28F C 0.0768(2) 0.6743(2) 0.1237(2)
H36F H 0.09730 0.69920 0.11210
H37F H 0.04480 0.67970 0.11260
H38F H 0.08800 0.64400 0.11210
Cl1F Cl 0.16939(4) 0.76327(4) 0.08048(4)
Ir1F Ir 0.16353(2) 0.79172(2) 0.16590(2)
H39F H 0.160(2) 0.808(2) 0.212(2)
H40F H 0.160(3) 0.841(3) 0.151(3)
N1F N 0.17967(15) 0.71811(14) 0.19321(15)
N2F N 0.20255(13) 0.66990(14) 0.25900(13)
N3F N 0.06580(15) 0.82955(16) 0.14490(14)
N4F N 0.06166(16) 0.76006(17) 0.17849(15)
Si1F Si 0.22799(6) 0.58883(6) 0.13864(7)
H41E H 0.15310 0.84470 0.30620
H42E H 0.14660 0.89250 0.37370
H41F H 0.15530 0.80620 0.34690
H42F H 0.10750 0.87370 0.35340
#END

data_CSD_CIF_ELUYOC01
_audit_creation_date 2021-02-24
_audit_creation_method CSD-ConQuest-V1
_database_code_CSD ELUYOC01
_database_code_depnum_ccdc_archive 'CCDC 2015082'
_chemical_formula_sum 'C27 H39 N3 O9'
_chemical_formula_moiety
;
C27 H39 N3 O9
;
_journal_coden_Cambridge 1326
_journal_volume 23
_journal_year 2021
_journal_page_first 5207
_journal_name_full 'Phys.Chem.Chem.Phys.(PCCP) '
loop_
_publ_author_name
"M.Raynal"
"Y.Li"
"C.Troufflard"
"C.Przybylski"
"G.Gontard"
"T.Maistriaux"
"J.Ide"
"R.Lazzaroni"
"L.Bouteiller"
"P.Brocorens"
_chemical_name_systematic
;
tri-t-butyl 2,2',2''-[benzene-1,3,5-triyltris(carbonylazanediyl)]triacetate
;
_cell_volume   6115.737
_exptl_crystal_colour 'colorless'
_exptl_crystal_density_diffrn 1.194
_exptl_special_details
;
cubic Pa-3 polymorph

;
_exptl_crystal_description 'prism'
_diffrn_ambient_temperature 200
#These two values have been output from a single CSD field.
_refine_ls_R_factor_gt 0.0406
_refine_ls_wR_factor_gt 0.0406
_symmetry_cell_setting cubic
_symmetry_space_group_name_H-M 'P a -3'
_symmetry_Int_Tables_number 205
loop_
_symmetry_equiv_pos_site_id
_symmetry_equiv_pos_as_xyz
1 x,y,z
2 1/2-x,-y,1/2+z
3 -x,1/2+y,1/2-z
4 1/2+x,1/2-y,-z
5 z,x,y
6 1/2+z,1/2-x,-y
7 1/2-z,-x,1/2+y
8 -z,1/2+x,1/2-y
9 y,z,x
10 -y,1/2+z,1/2-x
11 1/2+y,1/2-z,-x
12 1/2-y,-z,1/2+x
13 -x,-y,-z
14 -1/2+x,y,-1/2-z
15 x,-1/2-y,-1/2+z
16 -1/2-x,-1/2+y,z
17 -z,-x,-y
18 -1/2-z,-1/2+x,y
19 -1/2+z,x,-1/2-y
20 z,-1/2-x,-1/2+y
21 -y,-z,-x
22 y,-1/2-z,-1/2+x
23 -1/2-y,-1/2+z,x
24 -1/2+y,z,-1/2-x
_cell_length_a 18.2873(3)
_cell_length_b 18.2873(3)
_cell_length_c 18.2873(3)
_cell_angle_alpha 90
_cell_angle_beta 90
_cell_angle_gamma 90
_cell_formula_units_Z 8
loop_
_atom_type_symbol
_atom_type_radius_bond
C 0.68
H 0.23
N 0.68
O 0.68
loop_
_atom_site_label
_atom_site_type_symbol
_atom_site_fract_x
_atom_site_fract_y
_atom_site_fract_z
O1 O 0.58528(5) 0.58497(6) 0.19533(6)
O2 O 0.73258(5) 0.54506(6) 0.10836(6)
O3 O 0.80198(5) 0.62810(6) 0.16793(5)
N1 N 0.62060(6) 0.64775(7) 0.09576(7)
H1 H 0.60991 0.66327 0.05148
C1 C 0.47982(6) 0.61800(6) 0.03056(6)
H2 H 0.50424 0.66043 0.01319
C2 C 0.50582(6) 0.58191(6) 0.09218(6)
C3 C 0.57337(7) 0.60497(7) 0.13260(7)
C4 C 0.68879(8) 0.66784(9) 0.12959(10)
H3 H 0.67900 0.68565 0.17976
H4 H 0.71101 0.70853 0.10164
C5 C 0.74259(7) 0.60523(8) 0.13330(7)
C6 C 0.86902(8) 0.58290(9) 0.17227(8)
C7 C 0.85407(9) 0.51202(10) 0.21156(10)
H5 H 0.89907 0.48300 0.21381
H6 H 0.83701 0.52241 0.26129
H7 H 0.81640 0.48454 0.18514
C8 C 0.91968(9) 0.63195(12) 0.21571(11)
H8 H 0.96690 0.60748 0.22232
H9 H 0.92697 0.67799 0.18928
H10 H 0.89796 0.64210 0.26364
C9 C 0.89726(9) 0.57141(13) 0.09537(9)
H11 H 0.94173 0.54154 0.09695
H12 H 0.85994 0.54634 0.06620
H13 H 0.90840 0.61888 0.07315
O1F O 0.30467(5) 0.41472(6) 0.08497(6)
O2F O 0.39164(5) 0.26742(6) 0.04506(6)
O3F O 0.33207(5) 0.19802(6) 0.12810(5)
N1F N 0.40424(6) 0.37940(7) 0.14775(7)
H1F H 0.44852 0.39009 0.16327
C1F C 0.46944(6) 0.52018(6) 0.11800(6)
H2F H 0.48681 0.49576 0.16043
C2F C 0.40782(6) 0.49418(6) 0.08191(6)
C3F C 0.36740(7) 0.42663(7) 0.10497(7)
C4F C 0.37041(8) 0.31121(9) 0.16784(10)
H3F H 0.32024 0.32100 0.18565
H4F H 0.39836 0.28899 0.20853
C5F C 0.36670(7) 0.25741(8) 0.10523(7)
C6F C 0.32773(8) 0.13098(9) 0.08290(8)
C7F C 0.28844(9) 0.14593(10) 0.01202(10)
H5F H 0.28619 0.10093 -0.01700
H6F H 0.23871 0.16299 0.02241
H7F H 0.31486 0.18360 -0.01546
C8F C 0.28429(9) 0.08032(12) 0.13195(11)
H8F H 0.27768 0.03310 0.10748
H9F H 0.31072 0.07303 0.17799
H10F H 0.23636 0.10204 0.14210
C9F C 0.40463(9) 0.10274(13) 0.07141(9)
H11F H 0.40305 0.05827 0.04154
H12F H 0.43380 0.14006 0.04634
H13F H 0.42685 0.09160 0.11888
O1I O 0.41503(5) 0.69533(6) -0.08528(6)
O2I O 0.45494(5) 0.60836(6) -0.23258(6)
O3I O 0.37190(5) 0.66793(6) -0.30198(5)
N1I N 0.35225(6) 0.59576(7) -0.12060(7)
H1I H 0.33673 0.55148 -0.10991
C1I C 0.38200(6) 0.53056(6) 0.02018(6)
H2I H 0.33957 0.51319 -0.00424
C2I C 0.41809(6) 0.59218(6) -0.00582(6)
C3I C 0.39503(7) 0.63260(7) -0.07337(7)
C4I C 0.33216(8) 0.62959(9) -0.18879(10)
H3I H 0.31435 0.67976 -0.17900
H4I H 0.29147 0.60164 -0.21101
C5I C 0.39477(7) 0.63330(8) -0.24259(7)
C6I C 0.41710(8) 0.67227(9) -0.36902(8)
C7I C 0.48798(9) 0.71156(10) -0.35407(10)
H5I H 0.51700 0.71381 -0.39907
H6I H 0.47759 0.76129 -0.33701
H7I H 0.51546 0.68514 -0.31640
C8I C 0.36805(9) 0.71571(12) -0.41968(11)
H8I H 0.39252 0.72232 -0.46690
H9I H 0.32201 0.68928 -0.42697
H10I H 0.35790 0.76364 -0.39796
C9I C 0.42859(9) 0.59537(13) -0.39726(9)
H11I H 0.45846 0.59695 -0.44173
H12I H 0.45366 0.56620 -0.35994
H13I H 0.38112 0.57315 -0.40840
#END

data_CSD_CIF_EQOXEP
_audit_creation_date 2016-07-28
_audit_creation_method CSD-ConQuest-V1
_database_code_CSD EQOXEP
_database_code_depnum_ccdc_archive 'CCDC 1481881'
_chemical_formula_sum 'C54 H45 Cl1 Cu1 O6 P3 Si3'
_chemical_formula_moiety
;
C54 H45 Cl1 Cu1 O6 P3 Si3
;
_journal_coden_Cambridge 222
_journal_volume 45
_journal_year 2016
_journal_page_first 14774
_journal_name_full 'Dalton Trans. '
loop_
_publ_author_name
"A.Aloisi"
"J.-C.Berthet"
"C.Genre"
"P.Thuery"
"T.Cantat"
_chemical_name_systematic
;
chloro-(2,4,6-triphenyl-1,3,5,2,4,6-trioxatrisilinane-2,4,6-triyl 
tris(diphenyl(phosphinite)))-copper
;
_cell_volume  11085.092
_exptl_crystal_colour 'colorless'
_exptl_crystal_density_diffrn 1.278
_exptl_special_details
;
We calculate void space in the structure

;
_exptl_crystal_description 'irregular'
_diffrn_ambient_temperature 150
#These two values have been output from a single CSD field.
_refine_ls_R_factor_gt 0.0469
_refine_ls_wR_factor_gt 0.0469
_symmetry_cell_setting cubic
_symmetry_space_group_name_H-M 'P a -3'
_symmetry_Int_Tables_number 205
loop_
_symmetry_equiv_pos_site_id
_symmetry_equiv_pos_as_xyz
1 x,y,z
2 1/2-x,-y,1/2+z
3 -x,1/2+y,1/2-z
4 1/2+x,1/2-y,-z
5 z,x,y
6 1/2+z,1/2-x,-y
7 1/2-z,-x,1/2+y
8 -z,1/2+x,1/2-y
9 y,z,x
10 -y,1/2+z,1/2-x
11 1/2+y,1/2-z,-x
12 1/2-y,-z,1/2+x
13 -x,-y,-z
14 -1/2+x,y,-1/2-z
15 x,-1/2-y,-1/2+z
16 -1/2-x,-1/2+y,z
17 -z,-x,-y
18 -1/2-z,-1/2+x,y
19 -1/2+z,x,-1/2-y
20 z,-1/2-x,-1/2+y
21 -y,-z,-x
22 y,-1/2-z,-1/2+x
23 -1/2-y,-1/2+z,x
24 -1/2+y,z,-1/2-x
_cell_length_a 22.2970(4)
_cell_length_b 22.2970(4)
_cell_length_c 22.2970(4)
_cell_angle_alpha 90
_cell_angle_beta 90
_cell_angle_gamma 90
_cell_formula_units_Z 8
loop_
_atom_type_symbol
_atom_type_radius_bond
C 0.68
H 0.23
Cl 0.99
Cu 1.32
O 0.68
P 1.05
Si 1.20
loop_
_atom_site_label
_atom_site_type_symbol
_atom_site_fract_x
_atom_site_fract_y
_atom_site_fract_z
Cu1 Cu 0.74005(2) 0.74005(2) 0.74005(2)
Cl1 Cl 0.79966(4) 0.79966(4) 0.79966(4)
P1 P 0.71782(4) 0.65960(4) 0.79717(3)
Si1 Si 0.64003(4) 0.59603(4) 0.70498(4)
O1 O 0.67501(10) 0.60859(9) 0.76773(9)
O2 O 0.68914(9) 0.59357(9) 0.65045(9)
C1 C 0.60095(14) 0.52464(14) 0.71657(14)
C2 C 0.63112(17) 0.47605(16) 0.74256(18)
H1 H 0.67230 0.48020 0.75260
C3 C 0.60242(19) 0.42189(17) 0.7540(2)
H2 H 0.62420 0.38910 0.77030
C4 C 0.54293(19) 0.41629(17) 0.74182(19)
H3 H 0.52300 0.37950 0.75010
C5 C 0.51208(18) 0.46252(17) 0.7181(2)
H4 H 0.47050 0.45820 0.71010
C6 C 0.54055(16) 0.51638(16) 0.70523(17)
H5 H 0.51800 0.54830 0.68820
C7 C 0.78309(14) 0.61476(13) 0.81638(14)
C8 C 0.79889(16) 0.56514(14) 0.78220(16)
H6 H 0.77440 0.55330 0.74940
C9 C 0.85014(16) 0.53302(16) 0.79582(18)
H7 H 0.86090 0.49910 0.77230
C10 C 0.88580(17) 0.55012(17) 0.84366(19)
H8 H 0.92020 0.52720 0.85400
C11 C 0.87113(16) 0.60059(17) 0.87626(17)
H9 H 0.89640 0.61350 0.90810
C12 C 0.81994(15) 0.63227(15) 0.86276(15)
H10 H 0.80990 0.66670 0.88570
C13 C 0.68242(14) 0.66884(14) 0.87008(13)
C14 C 0.65820(19) 0.61991(17) 0.89956(16)
H11 H 0.65940 0.58140 0.88140
C15 C 0.6321(2) 0.6270(2) 0.95572(19)
H12 H 0.61570 0.59320 0.97600
C16 C 0.62986(19) 0.68265(19) 0.98196(17)
H13 H 0.61160 0.68740 1.02020
C17 C 0.65393(16) 0.73150(17) 0.95326(15)
H14 H 0.65270 0.76990 0.97180
C18 C 0.68023(15) 0.72469(15) 0.89672(14)
H15 H 0.69660 0.75850 0.87660
P1D P 0.79717(4) 0.71782(4) 0.65960(3)
Si1D Si 0.70498(4) 0.64003(4) 0.59603(4)
O1D O 0.76773(10) 0.67501(9) 0.60859(9)
O2D O 0.65045(9) 0.68914(9) 0.59357(9)
C1D C 0.71657(14) 0.60095(14) 0.52464(14)
C2D C 0.74256(17) 0.63112(16) 0.47605(18)
H1D H 0.75260 0.67230 0.48020
C3D C 0.75400(19) 0.60242(17) 0.42189(20)
H2D H 0.77030 0.62420 0.38910
C4D C 0.74182(19) 0.54293(17) 0.41629(19)
H3D H 0.75010 0.52300 0.37950
C5D C 0.71810(18) 0.51208(17) 0.46252(20)
H4D H 0.71010 0.47050 0.45820
C6D C 0.70523(16) 0.54055(16) 0.51638(17)
H5D H 0.68820 0.51800 0.54830
C7D C 0.81638(14) 0.78309(13) 0.61476(14)
C8D C 0.78220(16) 0.79889(14) 0.56514(16)
H6D H 0.74940 0.77440 0.55330
C9D C 0.79582(16) 0.85014(16) 0.53302(18)
H7D H 0.77230 0.86090 0.49910
C10D C 0.84366(17) 0.88580(17) 0.55012(19)
H8D H 0.85400 0.92020 0.52720
C11D C 0.87626(16) 0.87113(17) 0.60059(17)
H9D H 0.90810 0.89640 0.61350
C12D C 0.86276(15) 0.81994(15) 0.63227(15)
H10D H 0.88570 0.80990 0.66670
C13D C 0.87008(14) 0.68242(14) 0.66884(13)
C14D C 0.89956(19) 0.65820(17) 0.61991(16)
H11D H 0.88140 0.65940 0.58140
C15D C 0.95572(20) 0.6321(2) 0.62700(19)
H12D H 0.97600 0.61570 0.59320
C16D C 0.98196(19) 0.62986(19) 0.68265(17)
H13D H 1.02020 0.61160 0.68740
C17D C 0.95326(16) 0.65393(17) 0.73150(15)
H14D H 0.97180 0.65270 0.76990
C18D C 0.89672(15) 0.68023(15) 0.72469(14)
H15D H 0.87660 0.69660 0.75850
P1H P 0.65960(4) 0.79717(4) 0.71782(3)
Si1H Si 0.59603(4) 0.70498(4) 0.64003(4)
O1H O 0.60859(10) 0.76773(9) 0.67501(9)
O2H O 0.59357(9) 0.65045(9) 0.68914(9)
C1H C 0.52464(14) 0.71657(14) 0.60095(14)
C2H C 0.47605(17) 0.74256(16) 0.63112(18)
H1H H 0.48020 0.75260 0.67230
C3H C 0.42189(19) 0.75400(17) 0.60242(20)
H2H H 0.38910 0.77030 0.62420
C4H C 0.41629(19) 0.74182(17) 0.54293(19)
H3H H 0.37950 0.75010 0.52300
C5H C 0.46252(18) 0.71810(17) 0.51208(20)
H4H H 0.45820 0.71010 0.47050
C6H C 0.51638(16) 0.70523(16) 0.54055(17)
H5H H 0.54830 0.68820 0.51800
C7H C 0.61476(14) 0.81638(13) 0.78309(14)
C8H C 0.56514(16) 0.78220(14) 0.79889(16)
H6H H 0.55330 0.74940 0.77440
C9H C 0.53302(16) 0.79582(16) 0.85014(18)
H7H H 0.49910 0.77230 0.86090
C10H C 0.55012(17) 0.84366(17) 0.88580(19)
H8H H 0.52720 0.85400 0.92020
C11H C 0.60059(16) 0.87626(17) 0.87113(17)
H9H H 0.61350 0.90810 0.89640
C12H C 0.63227(15) 0.86276(15) 0.81994(15)
H10H H 0.66670 0.88570 0.80990
C13H C 0.66884(14) 0.87008(14) 0.68242(13)
C14H C 0.61991(19) 0.89956(17) 0.65820(16)
H11H H 0.58140 0.88140 0.65940
C15H C 0.6270(2) 0.95572(20) 0.63210(19)
H12H H 0.59320 0.97600 0.61570
C16H C 0.68265(19) 0.98196(19) 0.62986(17)
H13H H 0.68740 1.02020 0.61160
C17H C 0.73150(16) 0.95326(17) 0.65393(15)
H14H H 0.76990 0.97180 0.65270
C18H C 0.72469(15) 0.89672(15) 0.68023(14)
H15H H 0.75850 0.87660 0.69660
#END

data_CSD_CIF_ERICIR
_audit_creation_date 2004-05-06
_audit_creation_method CSD-ConQuest-V1
_database_code_CSD ERICIR
_database_code_depnum_ccdc_archive 'CCDC 230365'
_chemical_formula_sum 'C21 H15 F3 Ge1'
_chemical_formula_moiety
;
C21 H15 F3 Ge1
;
_journal_coden_Cambridge 579
_journal_volume 22
_journal_year 2003
_journal_page_first 5534
_journal_name_full 'Organometallics '
loop_
_publ_author_name
"A.K.Brisdon"
"I.R.Crossley"
"R.G.Pritchard"
"G.Sadiq"
"J.E.Warren"
_chemical_name_systematic
;
1,1,1-Trifluoro-3-(triphenylgermyl)-2-propyne
;
_chemical_melting_point 381.15
_cell_volume   3555.586
_exptl_crystal_colour 'colorless'
_exptl_crystal_density_diffrn 1.483
_exptl_crystal_description 'prism'
_exptl_crystal_preparation 'dichloromethane/hexane'
_diffrn_ambient_temperature 150
#These two values have been output from a single CSD field.
_refine_ls_R_factor_gt 0.0344
_refine_ls_wR_factor_gt 0.0344
_symmetry_cell_setting cubic
_symmetry_space_group_name_H-M 'P a -3'
_symmetry_Int_Tables_number 205
loop_
_symmetry_equiv_pos_site_id
_symmetry_equiv_pos_as_xyz
1 x,y,z
2 y,z,x
3 z,x,y
4 1/2+x,y,1/2-z
5 1/2-x,1/2+y,z
6 x,1/2-y,1/2+z
7 1/2+y,z,1/2-x
8 1/2-y,1/2+z,x
9 y,1/2-z,1/2+x
10 z,1/2-x,1/2+y
11 1/2+z,x,1/2-y
12 1/2-z,1/2+x,y
13 -x,-y,-z
14 -y,-z,-x
15 -z,-x,-y
16 -1/2-x,-y,-1/2+z
17 -1/2+x,-1/2-y,-z
18 -x,-1/2+y,-1/2-z
19 -1/2-y,-z,-1/2+x
20 -1/2+y,-1/2-z,-x
21 -y,-1/2+z,-1/2-x
22 -z,-1/2+x,-1/2-y
23 -1/2-z,-x,-1/2+y
24 -1/2+z,-1/2-x,-y
_cell_length_a 15.2629(7)
_cell_length_b 15.2629(7)
_cell_length_c 15.2629(7)
_cell_angle_alpha 90
_cell_angle_beta 90
_cell_angle_gamma 90
_cell_formula_units_Z 8
loop_
_atom_type_symbol
_atom_type_radius_bond
C 0.68
H 0.23
F 0.64
Ge 1.17
loop_
_atom_site_label
_atom_site_type_symbol
_atom_site_fract_x
_atom_site_fract_y
_atom_site_fract_z
Ge1 Ge 0.112373(16) 0.887627(16) 0.387627(16)
F1 F 0.36791(11) 0.71238(15) 0.24092(14)
C1 C 0.18551(17) 0.81449(17) 0.31449(17)
C2 C 0.23039(18) 0.76961(18) 0.26961(18)
C3 C 0.28583(17) 0.71417(17) 0.21417(17)
C4 C 0.18685(15) 0.97698(16) 0.43841(15)
C5 C 0.26105(17) 0.95459(19) 0.48613(17)
C6 C 0.31290(19) 1.0188(2) 0.52393(18)
C7 C 0.29168(19) 1.1057(2) 0.51492(19)
C8 C 0.2184(2) 1.12987(19) 0.4675(2)
C9 C 0.16628(18) 1.06557(17) 0.42952(17)
H1 H 0.2748(18) 0.8911(19) 0.4932(18)
H2 H 0.364(2) 1.002(2) 0.555(2)
H3 H 0.325(2) 1.149(2) 0.5389(19)
H4 H 0.2010(19) 1.193(2) 0.4624(19)
H5 H 0.114(2) 1.085(2) 0.399(2)
F1V F 0.25908(11) 0.63209(15) 0.21238(14)
F1T F 0.28762(11) 0.74092(15) 0.13209(14)
C4T C 0.02302(15) 0.93841(16) 0.31315(15)
C5T C 0.04541(17) 0.98613(19) 0.23895(17)
C6T C -0.01880(19) 1.02393(20) 0.18710(18)
C7T C -0.10570(19) 1.01492(20) 0.20832(19)
C8T C -0.12987(20) 0.96750(19) 0.2816(2)
C9T C -0.06557(18) 0.92952(17) 0.33372(17)
H5T H -0.085(2) 0.899(2) 0.386(2)
H4T H -0.1930(19) 0.9624(20) 0.2990(19)
H3T H -0.149(2) 1.0389(20) 0.1750(19)
H2T H -0.002(2) 1.055(2) 0.136(2)
H1T H 0.1089(18) 0.9932(19) 0.2252(18)
C4V C 0.06159(15) 0.81315(16) 0.47698(15)
C5V C 0.01387(17) 0.73895(19) 0.45459(17)
C6V C -0.02393(19) 0.6871(2) 0.51880(18)
C7V C -0.01492(19) 0.70832(20) 0.60570(19)
C8V C 0.0325(2) 0.78160(19) 0.62987(20)
C9V C 0.07048(18) 0.83372(17) 0.56557(17)
H5V H 0.101(2) 0.886(2) 0.585(2)
H4V H 0.0376(19) 0.799(2) 0.6930(19)
H3V H -0.0389(20) 0.675(2) 0.6490(19)
H2V H -0.055(2) 0.636(2) 0.502(2)
H1V H 0.0068(18) 0.7252(19) 0.3911(18)
#END

data_CSD_CIF_FESKAP02
_audit_creation_date 1994-11-22
_audit_creation_method CSD-ConQuest-V1
_database_code_CSD FESKAP02
_chemical_formula_sum 'C18 H15 As1 I2'
_chemical_formula_moiety
;
C18 H15 As1 I2
;
_journal_coeditor_code "IUCr HU1065"
_journal_coden_Cambridge 591
_journal_volume 50
_journal_year 1994
_journal_page_first 717
_journal_name_full 'Acta Crystallogr.,Sect.C:Cryst.Struct.Commun. '
loop_
_publ_author_name
"S.Abbas"
"S.M.Godfrey"
"C.A.McAuliffe"
"R.G.Pritchard"
_chemical_name_systematic
;
Triphenylarsine-di-iodine
;
_cell_volume   3686.522
_exptl_crystal_colour 'orange'
_exptl_crystal_density_diffrn 2.018
_exptl_special_details
;
cubic polymorph

;
_diffrn_ambient_temperature ?
_diffrn_special_details
;
The study was carried out at room temperature,in the range 283-303K

;
#These two values have been output from a single CSD field.
_refine_ls_R_factor_gt 0.0414
_refine_ls_wR_factor_gt 0.0414
_symmetry_cell_setting cubic
_symmetry_space_group_name_H-M 'P a 3'
_symmetry_Int_Tables_number 205
loop_
_symmetry_equiv_pos_site_id
_symmetry_equiv_pos_as_xyz
1 x,y,z
2 z,x,y
3 y,z,x
4 1/2+x,y,1/2-z
5 1/2+z,x,1/2-y
6 1/2+y,z,1/2-x
7 1/2-x,1/2+y,z
8 1/2-z,1/2+x,y
9 1/2-y,1/2+z,x
10 -x,1/2+y,1/2-z
11 -z,1/2+x,1/2-y
12 -y,1/2+z,1/2-x
13 -x,-y,-z
14 -z,-x,-y
15 -y,-z,-x
16 -1/2-x,-y,-1/2+z
17 -1/2-z,-x,-1/2+y
18 -1/2-y,-z,-1/2+x
19 -1/2+x,-1/2-y,-z
20 -1/2+z,-1/2-x,-y
21 -1/2+y,-1/2-z,-x
22 x,-1/2-y,-1/2+z
23 z,-1/2-x,-1/2+y
24 y,-1/2-z,-1/2+x
_cell_length_a 15.448(3)
_cell_length_b 15.448(3)
_cell_length_c 15.448(3)
_cell_angle_alpha 90
_cell_angle_beta 90
_cell_angle_gamma 90
_cell_formula_units_Z 8
loop_
_atom_type_symbol
_atom_type_radius_bond
C 0.68
H 0.23
As 1.21
I 1.40
loop_
_atom_site_label
_atom_site_type_symbol
_atom_site_fract_x
_atom_site_fract_y
_atom_site_fract_z
I1 I 0.78896(6) 0.78896 0.78896
I2 I 0.67634(7) 0.67634 0.67634
As1 As 0.88671(10) 0.88671 0.88671
C1 C 0.8215(10) 0.980(1) 0.9347(9)
C2 C 0.749(1) 0.963(1) 0.9781(10)
C3 C 0.697(1) 1.024(1) 1.016(1)
C4 C 0.724(1) 1.109(1) 1.009(1)
C5 C 0.797(1) 1.128(1) 0.9648(10)
C6 C 0.8477(10) 1.064(1) 0.926(1)
H1 H 0.73220 0.90360 0.98280
H2 H 0.64520 1.00850 1.04600
H3 H 0.69150 1.15420 1.03530
H4 H 0.81450 1.18680 0.95980
H5 H 0.89880 1.07890 0.89540
C1A C 0.9347(10) 0.8215(10) 0.9800(9)
C1B C 0.980(1) 0.9347(10) 0.8215(9)
C2A C 0.9781(10) 0.749(1) 0.963(1)
C6A C 0.926(1) 0.8477(10) 1.064(1)
C2B C 0.963(1) 0.9781(10) 0.749(1)
C6B C 1.064(1) 0.926(1) 0.8477(10)
C3A C 1.016(1) 0.697(1) 1.024(1)
H1A H 0.98280 0.73220 0.90360
C5A C 0.9648(10) 0.797(1) 1.128(1)
H5A H 0.89540 0.89880 1.07890
C3B C 1.024(1) 1.016(1) 0.697(1)
H1B H 0.90360 0.98280 0.73220
C5B C 1.128(1) 0.9648(10) 0.797(1)
H5B H 1.07890 0.89540 0.89880
C4A C 1.009(1) 0.724(1) 1.109(1)
H2A H 1.04600 0.64520 1.00850
H4A H 0.95980 0.81450 1.18680
C4B C 1.109(1) 1.009(1) 0.724(1)
H2B H 1.00850 1.04600 0.64520
H4B H 1.18680 0.95980 0.81450
H3A H 1.03530 0.69150 1.15420
H3B H 1.15420 1.03530 0.69150
#END

data_CSD_CIF_FILKOC
_audit_creation_date 2013-08-13
_audit_creation_method CSD-ConQuest-V1
_database_code_CSD FILKOC
_database_code_depnum_ccdc_archive 'CCDC 933719'
_chemical_formula_sum 'C54 H108.8 Fe1 N9 O0.42 S6'
_chemical_formula_moiety
;
3(C16 H36 N1 1+),C6 Fe1 N6 S6 3-,0.42(H2 O1)
;
_journal_coden_Cambridge 222
_journal_volume 42
_journal_year 2013
_journal_page_first 14982
_journal_name_full 'Dalton Trans. '
loop_
_publ_author_name
"D.Savard"
"D.B.Leznoff"
_chemical_name_systematic
;
tris(tetrabutylammonium) hexakis(isothiocyanato)-iron(iii) hydrate
;
_cell_volume  14104.954
_exptl_crystal_colour 'red'
_exptl_crystal_density_diffrn 1.072
_exptl_crystal_description 'block'
_diffrn_ambient_temperature 293
#These two values have been output from a single CSD field.
_refine_ls_R_factor_gt 0.0292
_refine_ls_wR_factor_gt 0.0292
_symmetry_cell_setting cubic
_symmetry_space_group_name_H-M 'P a -3'
_symmetry_Int_Tables_number 205
loop_
_symmetry_equiv_pos_site_id
_symmetry_equiv_pos_as_xyz
1 x,y,z
2 1/2-y,-z,1/2+x
3 1/2-x,-y,1/2+z
4 1/2+x,1/2-y,-z
5 z,x,y
6 -x,1/2+y,1/2-z
7 -y,1/2+z,1/2-x
8 1/2+z,1/2-x,-y
9 -z,1/2+x,1/2-y
10 1/2+y,1/2-z,-x
11 1/2-z,-x,1/2+y
12 y,z,x
13 -x,-y,-z
14 -1/2+y,z,-1/2-x
15 -1/2+x,y,-1/2-z
16 -1/2-x,-1/2+y,z
17 -z,-x,-y
18 x,-1/2-y,-1/2+z
19 y,-1/2-z,-1/2+x
20 -1/2-z,-1/2+x,y
21 z,-1/2-x,-1/2+y
22 -1/2-y,-1/2+z,x
23 -1/2+z,x,-1/2-y
24 -y,-z,-x
_cell_length_a 24.1615(2)
_cell_length_b 24.1615(2)
_cell_length_c 24.1615(2)
_cell_angle_alpha 90
_cell_angle_beta 90
_cell_angle_gamma 90
_cell_formula_units_Z 8
loop_
_atom_type_symbol
_atom_type_radius_bond
C 0.68
H 0.23
Fe 1.52
N 0.68
O 0.68
S 1.02
loop_
_atom_site_label
_atom_site_type_symbol
_atom_site_fract_x
_atom_site_fract_y
_atom_site_fract_z
Fe1 Fe 0.313247(17) 0.313247(17) 0.313247(17)
S1 S 0.16809(3) 0.18368(3) 0.35789(4)
S2 S 0.43410(4) 0.44883(4) 0.23074(4)
N1 N 0.25551(12) 0.25641(12) 0.33997(11)
N2 N 0.36757(11) 0.36954(12) 0.28233(11)
C1 C 0.21881(14) 0.22645(13) 0.34691(13)
C2 C 0.39545(13) 0.40247(14) 0.26039(13)
N3 N 0.26449(10) 0.23954(10) 0.53254(9)
C3 C 0.24770(13) 0.19351(13) 0.49327(12)
C4 C 0.20970(15) 0.14997(14) 0.51794(14)
C5 C 0.21098(16) 0.09623(14) 0.48794(16)
C6 C 0.17420(17) 0.05336(15) 0.51466(16)
C7 C 0.29751(13) 0.21612(13) 0.58059(12)
C8 C 0.35033(14) 0.18684(15) 0.56468(14)
C9 C 0.37849(15) 0.15921(15) 0.61258(14)
C10 C 0.43059(15) 0.12918(16) 0.59429(16)
C11 C 0.29929(13) 0.28060(12) 0.49941(12)
C12 C 0.31896(14) 0.33065(13) 0.53147(13)
C13 C 0.36514(13) 0.36081(13) 0.50146(13)
C14 C 0.38567(15) 0.41029(14) 0.53425(16)
C15 C 0.21383(13) 0.26716(13) 0.55704(13)
C16 C 0.17271(13) 0.29116(14) 0.51619(14)
C17 C 0.12219(15) 0.31325(16) 0.54588(16)
C18 C 0.08011(16) 0.33885(18) 0.50727(19)
H1 H 0.28030 0.17500 0.48120
H2 H 0.22970 0.20980 0.46230
H3 H 0.22040 0.14390 0.55530
H4 H 0.17290 0.16380 0.51700
H5 H 0.24800 0.08300 0.48790
H6 H 0.19910 0.10200 0.45090
H7 H 0.17610 0.01950 0.49480
H8 H 0.18610 0.04750 0.55170
H9 H 0.13710 0.06650 0.51470
H10 H 0.30750 0.24580 0.60430
H11 H 0.27470 0.19080 0.60020
H12 H 0.37510 0.21260 0.54830
H13 H 0.34110 0.15910 0.53840
H14 H 0.38780 0.18690 0.63890
H15 H 0.35380 0.13330 0.62890
H16 H 0.44810 0.11240 0.62520
H17 H 0.45510 0.15520 0.57790
H18 H 0.42120 0.10160 0.56790
H19 H 0.33100 0.26170 0.48590
H20 H 0.27780 0.29340 0.46910
H21 H 0.33230 0.31860 0.56640
H22 H 0.28880 0.35540 0.53680
H23 H 0.39500 0.33590 0.49580
H24 H 0.35160 0.37320 0.46670
H25 H 0.41450 0.42880 0.51490
H26 H 0.39910 0.39780 0.56900
H27 H 0.35570 0.43510 0.53990
H28 H 0.22590 0.29650 0.58020
H29 H 0.19460 0.24050 0.57860
H30 H 0.18990 0.32060 0.49660
H31 H 0.16210 0.26300 0.49090
H32 H 0.13360 0.34030 0.57210
H33 H 0.10500 0.28330 0.56460
H34 H 0.04900 0.35190 0.52750
H35 H 0.09710 0.36890 0.48850
H36 H 0.06840 0.31190 0.48110
O1 O 0.2024(4) 0.2024(4) 0.2024(4)
S1D S 0.35789(3) 0.16809(3) 0.18368(4)
S2D S 0.23074(4) 0.43410(4) 0.44883(4)
N1D N 0.33997(12) 0.25551(12) 0.25641(11)
N2D N 0.28233(11) 0.36757(12) 0.36954(11)
C1D C 0.34691(14) 0.21881(13) 0.22645(13)
C2D C 0.26039(13) 0.39545(14) 0.40247(13)
S1K S 0.18368(3) 0.35789(3) 0.16809(4)
S2K S 0.44883(4) 0.23074(4) 0.43410(4)
N1K N 0.25641(12) 0.33997(12) 0.25551(11)
N2K N 0.36954(11) 0.28233(12) 0.36757(11)
C1K C 0.22645(14) 0.34691(13) 0.21881(13)
C2K C 0.40247(13) 0.26039(14) 0.39545(13)
#END

data_CSD_CIF_FOJBUB02
_audit_creation_date 1994-02-02
_audit_creation_method CSD-ConQuest-V1
_database_code_CSD FOJBUB02
_database_code_depnum_ccdc_archive 'CCDC 1158633'
_chemical_formula_sum 'C4 Ni1 O4'
_chemical_formula_moiety
;
C4 Ni1 O4
;
_journal_coden_Cambridge 579
_journal_volume 12
_journal_year 1993
_journal_page_first 1481
_journal_name_full 'Organometallics '
loop_
_publ_author_name
"D.Braga"
"F.Grepioni"
"A.G.Orpen"
_chemical_name_systematic
;
Tetracarbonyl-nickel
;
_chemical_name_common
;
Teaching Subset: Fundamental Chemistry, Symmetry
;
_cell_volume   1270.943
_diffrn_ambient_temperature 198
#These two values have been output from a single CSD field.
_refine_ls_R_factor_gt 0.042
_refine_ls_wR_factor_gt 0.042
_symmetry_cell_setting cubic
_symmetry_space_group_name_H-M 'P a 3'
_symmetry_Int_Tables_number 205
loop_
_symmetry_equiv_pos_site_id
_symmetry_equiv_pos_as_xyz
1 x,y,z
2 z,x,y
3 y,z,x
4 -x,1/2+y,1/2-z
5 -z,1/2+x,1/2-y
6 -y,1/2+z,1/2-x
7 1/2-x,-y,1/2+z
8 1/2-z,-x,1/2+y
9 1/2-y,-z,1/2+x
10 1/2+x,1/2-y,-z
11 1/2+z,1/2-x,-y
12 1/2+y,1/2-z,-x
13 -x,-y,-z
14 -z,-x,-y
15 -y,-z,-x
16 x,-1/2-y,-1/2+z
17 z,-1/2-x,-1/2+y
18 y,-1/2-z,-1/2+x
19 -1/2+x,y,-1/2-z
20 -1/2+z,x,-1/2-y
21 -1/2+y,z,-1/2-x
22 -1/2-x,-1/2+y,z
23 -1/2-z,-1/2+x,y
24 -1/2-y,-1/2+z,x
_cell_length_a 10.832(5)
_cell_length_b 10.832(5)
_cell_length_c 10.832(5)
_cell_angle_alpha 90
_cell_angle_beta 90
_cell_angle_gamma 90
_cell_formula_units_Z 8
loop_
_atom_type_symbol
_atom_type_radius_bond
C 0.68
Ni 1.50
O 0.68
loop_
_atom_site_label
_atom_site_type_symbol
_atom_site_fract_x
_atom_site_fract_y
_atom_site_fract_z
Ni1 Ni 0.12184(2) 0.12184(2) 0.12184(2)
C1 C 0.21878(15) 0.21878(15) 0.21878(15)
O1 O 0.27872(12) 0.27872(12) 0.27872(12)
C2 C 0.0231(2) 0.02757(15) 0.2190(2)
O2 O -0.03870(14) -0.03102(13) 0.27895(15)
C2A C 0.2190(2) 0.02310(15) 0.02757(20)
C2B C 0.02757(20) 0.21900(15) 0.0231(2)
O2A O 0.27895(14) -0.03870(13) -0.03102(15)
O2B O -0.03102(14) 0.27895(13) -0.03870(15)
#END

data_CSD_CIF_FOJBUB03
_audit_creation_date 2016-07-08
_audit_creation_method CSD-ConQuest-V1
_database_code_CSD FOJBUB03
_database_code_depnum_ccdc_archive 'CCDC 1491633'
_chemical_formula_sum 'C4 Ni1 O4'
_chemical_formula_moiety
;
C4 Ni1 O4
;
_journal_coden_Cambridge 37
_journal_volume 109
_journal_year 2005
_journal_page_first 8834
_journal_name_full 'J.Phys.Chem. '
loop_
_publ_author_name
"L.J.Farrugia"
"C.Evans"
_chemical_name_systematic
;
tetracarbonyl-nickel(0)
;
_cell_volume   1226.967
_exptl_crystal_colour 'colorless'
_exptl_crystal_density_diffrn 1.849
_diffrn_ambient_temperature 100
_refine_special_details
;
multipole

;
#These two values have been output from a single CSD field.
_refine_ls_R_factor_gt 0.0117
_refine_ls_wR_factor_gt 0.0117
_symmetry_cell_setting cubic
_symmetry_space_group_name_H-M 'P a -3'
_symmetry_Int_Tables_number 205
loop_
_symmetry_equiv_pos_site_id
_symmetry_equiv_pos_as_xyz
1 x,y,z
2 1/2-x,-y,1/2+z
3 1/2+x,1/2-y,-z
4 -x,1/2+y,1/2-z
5 y,z,x
6 1/2-y,-z,1/2+x
7 1/2+y,1/2-z,-x
8 -y,1/2+z,1/2-x
9 z,x,y
10 -z,1/2+x,1/2-y
11 1/2-z,-x,1/2+y
12 1/2+z,1/2-x,-y
13 -x,-y,-z
14 -1/2+x,y,-1/2-z
15 -1/2-x,-1/2+y,z
16 x,-1/2-y,-1/2+z
17 -y,-z,-x
18 -1/2+y,z,-1/2-x
19 -1/2-y,-1/2+z,x
20 y,-1/2-z,-1/2+x
21 -z,-x,-y
22 z,-1/2-x,-1/2+y
23 -1/2+z,x,-1/2-y
24 -1/2-z,-1/2+x,y
_cell_length_a 10.7056(3)
_cell_length_b 10.7056(3)
_cell_length_c 10.7056(3)
_cell_angle_alpha 90
_cell_angle_beta 90
_cell_angle_gamma 90
_cell_formula_units_Z 8
loop_
_atom_type_symbol
_atom_type_radius_bond
C 0.68
Ni 1.24
O 0.68
loop_
_atom_site_label
_atom_site_type_symbol
_atom_site_fract_x
_atom_site_fract_y
_atom_site_fract_z
Ni1 Ni 0.121444(3) 0.121444(3) 0.121444(3)
O1 O 0.28148(6) 0.28148(6) 0.28148(6)
O2 O -0.04221(4) -0.03400(4) 0.28154(4)
C1 C 0.22004(4) 0.22004(4) 0.22004(4)
C2 C 0.02113(3) 0.02558(3) 0.22047(3)
O2D O -0.03400(4) 0.28154(4) -0.04221(4)
C2D C 0.02558(3) 0.22047(3) 0.02113(3)
O2H O 0.28154(4) -0.04221(4) -0.03400(4)
C2H C 0.22047(3) 0.02113(3) 0.02558(3)
#END

data_CSD_CIF_FOJBUB04
_audit_creation_date 2016-07-08
_audit_creation_method CSD-ConQuest-V1
_database_code_CSD FOJBUB04
_database_code_depnum_ccdc_archive 'CCDC 1491634'
_chemical_formula_sum 'C4 Ni1 O4'
_chemical_formula_moiety
;
C4 Ni1 O4
;
_journal_coden_Cambridge 37
_journal_volume 109
_journal_year 2005
_journal_page_first 8834
_journal_name_full 'J.Phys.Chem. '
loop_
_publ_author_name
"L.J.Farrugia"
"C.Evans"
_chemical_name_systematic
;
tetracarbonyl-nickel
;
_cell_volume   1226.967
_exptl_crystal_colour 'colorless'
_exptl_crystal_density_diffrn 1.849
_diffrn_ambient_temperature 100
#These two values have been output from a single CSD field.
_refine_ls_R_factor_gt 0.0178
_refine_ls_wR_factor_gt 0.0178
_symmetry_cell_setting cubic
_symmetry_space_group_name_H-M 'P a -3'
_symmetry_Int_Tables_number 205
loop_
_symmetry_equiv_pos_site_id
_symmetry_equiv_pos_as_xyz
1 x,y,z
2 1/2-x,-y,1/2+z
3 1/2+x,1/2-y,-z
4 -x,1/2+y,1/2-z
5 y,z,x
6 1/2-y,-z,1/2+x
7 1/2+y,1/2-z,-x
8 -y,1/2+z,1/2-x
9 z,x,y
10 -z,1/2+x,1/2-y
11 1/2-z,-x,1/2+y
12 1/2+z,1/2-x,-y
13 -x,-y,-z
14 -1/2+x,y,-1/2-z
15 -1/2-x,-1/2+y,z
16 x,-1/2-y,-1/2+z
17 -y,-z,-x
18 -1/2+y,z,-1/2-x
19 -1/2-y,-1/2+z,x
20 y,-1/2-z,-1/2+x
21 -z,-x,-y
22 z,-1/2-x,-1/2+y
23 -1/2+z,x,-1/2-y
24 -1/2-z,-1/2+x,y
_cell_length_a 10.7056(3)
_cell_length_b 10.7056(3)
_cell_length_c 10.7056(3)
_cell_angle_alpha 90
_cell_angle_beta 90
_cell_angle_gamma 90
_cell_formula_units_Z 8
loop_
_atom_type_symbol
_atom_type_radius_bond
C 0.68
Ni 1.24
O 0.68
loop_
_atom_site_label
_atom_site_type_symbol
_atom_site_fract_x
_atom_site_fract_y
_atom_site_fract_z
Ni1 Ni 0.121449(6) 0.121449(6) 0.121449(6)
C1 C 0.22015(6) 0.22015(6) 0.22015(6)
C2 C 0.02113(6) 0.02560(6) 0.22040(6)
O1 O 0.28124(5) 0.28124(5) 0.28124(5)
O2 O -0.04196(6) -0.03375(6) 0.28137(6)
C2D C 0.02560(6) 0.22040(6) 0.02113(6)
O2D O -0.03375(6) 0.28137(6) -0.04196(6)
C2H C 0.22040(6) 0.02113(6) 0.02560(6)
O2H O 0.28137(6) -0.04196(6) -0.03375(6)
#END

data_CSD_CIF_FUDKUL
_audit_creation_date 2010-01-11
_audit_creation_method CSD-ConQuest-V1
_database_code_CSD FUDKUL
_database_code_depnum_ccdc_archive 'CCDC 683010'
_chemical_formula_sum 'C57 H63 Er1 N6 O21'
_chemical_formula_moiety
;
C57 H39 Er1 N6 O9,12(H2 O1)
;
_journal_coden_Cambridge 155
_journal_volume 362
_journal_year 2009
_journal_page_first 3196
_journal_name_full 'Inorg.Chim.Acta '
loop_
_publ_author_name
"Bao-Li An"
"Jian Song"
"Kok-Wai Cheah"
"Yuan-Yuan Ren"
"Zhi-Xuan Cheng"
_chemical_name_systematic
;
tris(6-(diphenylcarbamoyl)-2-pyridinecarboxylato)-erbium(iii) dodecahydrate
;
_cell_volume  11921.886
_exptl_crystal_density_diffrn 1.461
_exptl_special_details
;
luminescent

;
_diffrn_ambient_temperature 273
#These two values have been output from a single CSD field.
_refine_ls_R_factor_gt 0.0298
_refine_ls_wR_factor_gt 0.0298
_symmetry_cell_setting cubic
_symmetry_space_group_name_H-M 'P a -3'
_symmetry_Int_Tables_number 205
loop_
_symmetry_equiv_pos_site_id
_symmetry_equiv_pos_as_xyz
1 x,y,z
2 1/2-x,-y,1/2+z
3 -x,1/2+y,1/2-z
4 1/2+x,1/2-y,-z
5 z,x,y
6 1/2+z,1/2-x,-y
7 1/2-z,-x,1/2+y
8 -z,1/2+x,1/2-y
9 y,z,x
10 -y,1/2+z,1/2-x
11 1/2+y,1/2-z,-x
12 1/2-y,-z,1/2+x
13 -x,-y,-z
14 -1/2+x,y,-1/2-z
15 x,-1/2-y,-1/2+z
16 -1/2-x,-1/2+y,z
17 -z,-x,-y
18 -1/2-z,-1/2+x,y
19 -1/2+z,x,-1/2-y
20 z,-1/2-x,-1/2+y
21 -y,-z,-x
22 y,-1/2-z,-1/2+x
23 -1/2-y,-1/2+z,x
24 -1/2+y,z,-1/2-x
_cell_length_a 22.8445(8)
_cell_length_b 22.8445(8)
_cell_length_c 22.8445(8)
_cell_angle_alpha 90
_cell_angle_beta 90
_cell_angle_gamma 90
_cell_formula_units_Z 8
loop_
_atom_type_symbol
_atom_type_radius_bond
C 0.68
H 0.23
Er 1.89
N 0.68
O 0.68
loop_
_atom_site_label
_atom_site_type_symbol
_atom_site_fract_x
_atom_site_fract_y
_atom_site_fract_z
Er1 Er 0.852940(7) 0.352940(7) 0.147060(7)
C1 C 0.64293(16) 0.29261(18) 0.15797(18)
C2 C 0.6117(2) 0.2835(2) 0.1077(2)
H1 H 0.59910 0.31500 0.08520
C3 C 0.5991(3) 0.2262(2) 0.0908(3)
H2 H 0.57800 0.21960 0.05670
C4 C 0.6172(2) 0.1800(2) 0.1233(3)
H3 H 0.60860 0.14200 0.11130
C5 C 0.6480(2) 0.1893(2) 0.1737(2)
H4 H 0.66050 0.15760 0.19600
C6 C 0.66087(18) 0.24566(18) 0.1917(2)
H5 H 0.68140 0.25190 0.22620
C7 C 0.60884(15) 0.39179(16) 0.18434(18)
C8 C 0.57291(18) 0.38581(19) 0.2326(2)
H6 H 0.57910 0.35600 0.25960
C9 C 0.5275(2) 0.4253(2) 0.2399(3)
H7 H 0.50300 0.42240 0.27220
C10 C 0.5188(2) 0.4687(2) 0.1992(3)
H8 H 0.48850 0.49540 0.20470
C11 C 0.5535(3) 0.4734(2) 0.1512(3)
H9 H 0.54640 0.50260 0.12380
C12 C 0.59922(19) 0.43495(18) 0.1430(2)
H10 H 0.62320 0.43800 0.11030
C13 C 0.71330(15) 0.36753(16) 0.17613(15)
C14 C 0.88231(18) 0.48477(18) 0.18898(17)
C15 C 0.81961(16) 0.48007(17) 0.20871(15)
C16 C 0.79347(19) 0.51785(19) 0.24849(17)
H11 H 0.81380 0.54980 0.26340
C17 C 0.73690(19) 0.5069(2) 0.26527(19)
H12 H 0.71890 0.53110 0.29260
C18 C 0.70634(18) 0.46007(18) 0.24186(17)
H13 H 0.66780 0.45280 0.25260
C19 C 0.73476(15) 0.42428(15) 0.20196(15)
N1 N 0.65680(13) 0.35127(13) 0.17670(16)
N2 N 0.79047(12) 0.43397(12) 0.18665(12)
O1 O 0.75081(11) 0.33410(11) 0.15564(11)
O2 O 0.90318(12) 0.43940(11) 0.16480(11)
O3 O 0.90864(16) 0.53103(15) 0.19664(14)
O4 O 0.94405(19) 0.44405(19) 0.05595(19)
O5 O 0.4739(4) 0.5261(4) 0.0261(4)
O6 O 0.67138(11) 0.32862(11) 0.82862(11)
O7 O 0.7082(2) 0.4281(2) 0.8972(2)
O8 O 0.6104(3) 0.4935(3) 0.8789(4)
O9 O 0.8975(4) 0.4938(4) 0.9731(6)
C1G C 0.84203(16) 0.14293(18) 0.20739(18)
C1J C 0.79261(16) 0.34203(18) 0.35707(18)
C2G C 0.8923(2) 0.1117(2) 0.2165(2)
C2J C 0.7835(2) 0.3923(2) 0.3883(2)
H1G H 0.91480 0.09910 0.18500
H1J H 0.81500 0.41480 0.40090
C3G C 0.9092(3) 0.0991(2) 0.2738(3)
C3J C 0.7262(3) 0.4092(2) 0.4009(3)
H2G H 0.94330 0.07800 0.28040
H2J H 0.71960 0.44330 0.42200
C4G C 0.8767(2) 0.1172(2) 0.3200(3)
C4J C 0.6800(2) 0.3767(2) 0.3828(3)
H3G H 0.88870 0.10860 0.35800
H3J H 0.64200 0.38870 0.39140
C5G C 0.8263(2) 0.1480(2) 0.3107(2)
C5J C 0.6893(2) 0.3263(2) 0.3520(2)
H4G H 0.80400 0.16050 0.34240
H4J H 0.65760 0.30400 0.33950
C6G C 0.80830(18) 0.16087(18) 0.25434(20)
C6J C 0.74566(18) 0.30830(18) 0.33913(20)
H5G H 0.77380 0.18140 0.24810
H5J H 0.75190 0.27380 0.31860
C7G C 0.81566(15) 0.10884(16) 0.10821(18)
C7J C 0.89179(15) 0.31566(16) 0.39116(18)
C8G C 0.76740(18) 0.07291(19) 0.11419(20)
C8J C 0.88581(18) 0.26740(19) 0.42709(20)
H6G H 0.74040 0.07910 0.14400
H6J H 0.85600 0.24040 0.42090
C9G C 0.7601(2) 0.0275(2) 0.0747(3)
C9J C 0.9253(2) 0.2601(2) 0.4725(3)
H7G H 0.72780 0.00300 0.07760
H7J H 0.92240 0.22780 0.49700
C10G C 0.8008(2) 0.0188(2) 0.0313(3)
C10J C 0.9687(2) 0.3008(2) 0.4812(3)
H8G H 0.79530 -0.01150 0.00460
H8J H 0.99540 0.29530 0.51150
C11G C 0.8488(3) 0.0535(2) 0.0266(3)
C11J C 0.9734(3) 0.3488(2) 0.4465(3)
H9G H 0.87620 0.04640 -0.00260
H9J H 1.00260 0.37620 0.45360
C12G C 0.85700(19) 0.09922(18) 0.06505(20)
C12J C 0.93495(19) 0.35700(18) 0.40078(20)
H10G H 0.88970 0.12320 0.06200
H10J H 0.93800 0.38970 0.37680
C13G C 0.82387(15) 0.21330(16) 0.13247(15)
C13J C 0.86753(15) 0.32387(16) 0.28670(15)
C14G C 0.81102(18) 0.38231(18) 0.01523(17)
C14J C 0.98477(18) 0.31102(18) 0.11769(17)
C15G C 0.79129(16) 0.31961(17) 0.01993(15)
C15J C 0.98007(16) 0.29129(17) 0.18039(15)
C16G C 0.75151(19) 0.29347(19) -0.01785(17)
C16J C 1.01785(19) 0.25151(19) 0.20653(17)
H11G H 0.73660 0.31380 -0.04980
H11J H 1.04980 0.23660 0.18620
C17G C 0.73473(19) 0.2369(2) -0.00690(19)
C17J C 1.00690(19) 0.23473(20) 0.26310(19)
H12G H 0.70740 0.21890 -0.03110
H12J H 1.03110 0.20740 0.28110
C18G C 0.75814(18) 0.20634(18) 0.03993(17)
C18J C 0.96007(18) 0.25814(18) 0.29366(17)
H13G H 0.74740 0.16780 0.04720
H13J H 0.95280 0.24740 0.33220
C19G C 0.79804(15) 0.23476(15) 0.07572(15)
C19J C 0.92428(15) 0.29804(15) 0.26524(15)
N1G N 0.82330(13) 0.15680(13) 0.14873(16)
N1J N 0.85127(13) 0.32330(13) 0.34320(16)
N2G N 0.81335(12) 0.29047(12) 0.06603(12)
N2J N 0.93397(12) 0.31335(12) 0.20953(12)
O1G O 0.84436(11) 0.25081(11) 0.16590(11)
O1J O 0.83410(11) 0.34436(11) 0.24919(11)
O2G O 0.83520(12) 0.40318(11) 0.06060(11)
O2J O 0.93940(12) 0.33520(11) 0.09682(11)
O3G O 0.80336(16) 0.40864(15) -0.03103(14)
O3J O 1.03103(16) 0.30336(15) 0.09136(14)
#END

data_CSD_CIF_FUDLAS
_audit_creation_date 2010-01-11
_audit_creation_method CSD-ConQuest-V1
_database_code_CSD FUDLAS
_database_code_depnum_ccdc_archive 'CCDC 683011'
_chemical_formula_sum 'C57 H63 N6 Nd1 O21'
_chemical_formula_moiety
;
C57 H39 N6 Nd1 O9,12(H2 O1)
;
_journal_coden_Cambridge 155
_journal_volume 362
_journal_year 2009
_journal_page_first 3196
_journal_name_full 'Inorg.Chim.Acta '
loop_
_publ_author_name
"Bao-Li An"
"Jian Song"
"Kok-Wai Cheah"
"Yuan-Yuan Ren"
"Zhi-Xuan Cheng"
_chemical_name_systematic
;
tris(6-(diphenylcarbamoyl)-2-pyridinecarboxylato)-neodymium(iii) dodecahydrate
;
_cell_volume  12203.856
_exptl_crystal_density_diffrn 1.402
_exptl_special_details
;
luminescent

;
_diffrn_ambient_temperature 273
#These two values have been output from a single CSD field.
_refine_ls_R_factor_gt 0.0361
_refine_ls_wR_factor_gt 0.0361
_symmetry_cell_setting cubic
_symmetry_space_group_name_H-M 'P a -3'
_symmetry_Int_Tables_number 205
loop_
_symmetry_equiv_pos_site_id
_symmetry_equiv_pos_as_xyz
1 x,y,z
2 1/2-x,-y,1/2+z
3 -x,1/2+y,1/2-z
4 1/2+x,1/2-y,-z
5 z,x,y
6 1/2+z,1/2-x,-y
7 1/2-z,-x,1/2+y
8 -z,1/2+x,1/2-y
9 y,z,x
10 -y,1/2+z,1/2-x
11 1/2+y,1/2-z,-x
12 1/2-y,-z,1/2+x
13 -x,-y,-z
14 -1/2+x,y,-1/2-z
15 x,-1/2-y,-1/2+z
16 -1/2-x,-1/2+y,z
17 -z,-x,-y
18 -1/2-z,-1/2+x,y
19 -1/2+z,x,-1/2-y
20 z,-1/2-x,-1/2+y
21 -y,-z,-x
22 y,-1/2-z,-1/2+x
23 -1/2-y,-1/2+z,x
24 -1/2+y,z,-1/2-x
_cell_length_a 23.0232(7)
_cell_length_b 23.0232(7)
_cell_length_c 23.0232(7)
_cell_angle_alpha 90
_cell_angle_beta 90
_cell_angle_gamma 90
_cell_formula_units_Z 8
loop_
_atom_type_symbol
_atom_type_radius_bond
C 0.68
H 0.23
N 0.68
Nd 2.01
O 0.68
loop_
_atom_site_label
_atom_site_type_symbol
_atom_site_fract_x
_atom_site_fract_y
_atom_site_fract_z
Nd1 Nd 0.854706(8) 0.354706(8) 0.145294(8)
C1 C 0.73370(14) 0.42542(14) 0.20327(15)
C2 C 0.70558(17) 0.45981(17) 0.24404(18)
H1 H 0.66760 0.45180 0.25540
C3 C 0.73580(18) 0.50656(19) 0.2674(2)
H2 H 0.71850 0.52940 0.29580
C4 C 0.79027(16) 0.51919(18) 0.24930(19)
H3 H 0.80970 0.55160 0.26360
C5 C 0.81660(14) 0.48291(16) 0.20895(17)
C6 C 0.87795(17) 0.49034(19) 0.18773(19)
C7 C 0.71267(14) 0.36946(15) 0.17718(14)
C8 C 0.64266(14) 0.29472(17) 0.16014(18)
C9 C 0.66090(17) 0.24794(17) 0.19294(19)
H4 H 0.68160 0.25390 0.22710
C10 C 0.64812(18) 0.19230(19) 0.1746(2)
H5 H 0.66020 0.16070 0.19660
C11 C 0.6180(2) 0.1834(2) 0.1245(2)
H6 H 0.60980 0.14580 0.11210
C12 C 0.5998(3) 0.2299(2) 0.0926(2)
H7 H 0.57890 0.22370 0.05860
C13 C 0.6116(2) 0.2855(2) 0.1096(2)
H8 H 0.59890 0.31680 0.08750
C14 C 0.60897(15) 0.39304(15) 0.18592(17)
C15 C 0.57291(18) 0.38698(18) 0.2335(2)
H9 H 0.57920 0.35760 0.26050
C16 C 0.5269(2) 0.4259(2) 0.2401(3)
H10 H 0.50190 0.42230 0.27160
C17 C 0.5185(2) 0.4690(2) 0.2006(4)
H11 H 0.48830 0.49520 0.20590
C18 C 0.5532(3) 0.4742(2) 0.1540(3)
H12 H 0.54630 0.50360 0.12730
C19 C 0.5999(2) 0.43565(19) 0.14513(19)
H13 H 0.62380 0.43900 0.11270
N1 N 0.78857(12) 0.43673(12) 0.18715(12)
N2 N 0.65657(12) 0.35319(12) 0.17856(15)
O1 O 0.90065(11) 0.44734(11) 0.16305(13)
O2 O 0.90210(14) 0.53803(17) 0.19477(16)
O3 O 0.74943(11) 0.33640(11) 0.15596(11)
O4 O 0.9480(3) 0.4480(3) 0.0520(3)
O5 O 0.67089(9) 0.17089(9) 0.32911(9)
O6 O 0.0313(11) 0.3908(5) 0.0056(5)
O7 O 0.1252(3) 0.1124(3) 0.0039(2)
O8 O 0.1010(2) 0.2076(2) 0.0724(2)
O9 O 0.0314(3) 0.0314(3) 0.0314(3)
C1G C 0.79673(14) 0.23370(14) 0.07458(15)
C1J C 0.92542(14) 0.29673(14) 0.26630(15)
C2G C 0.75596(17) 0.20558(17) 0.04019(18)
C2J C 0.95981(17) 0.25596(17) 0.29442(18)
H1G H 0.74460 0.16760 0.04820
H1J H 0.95180 0.24460 0.33240
C3G C 0.73260(18) 0.23580(19) -0.00656(20)
C3J C 1.00656(18) 0.23260(19) 0.2642(2)
H2G H 0.70420 0.21850 -0.02940
H2J H 1.02940 0.20420 0.28150
C4G C 0.75070(16) 0.29027(18) -0.01919(19)
C4J C 1.01919(16) 0.25070(18) 0.20973(19)
H3G H 0.73640 0.30970 -0.05160
H3J H 1.05160 0.23640 0.19030
C5G C 0.79105(14) 0.31660(16) 0.01709(17)
C5J C 0.98291(14) 0.29105(16) 0.18340(17)
C6G C 0.81227(17) 0.37795(19) 0.00966(19)
C6J C 0.99034(17) 0.31227(19) 0.12205(19)
C7G C 0.82282(14) 0.21267(15) 0.13054(14)
C7J C 0.86946(14) 0.32282(15) 0.28733(14)
C8G C 0.83986(14) 0.14266(17) 0.20528(18)
C8J C 0.79472(14) 0.33986(17) 0.35734(18)
C9G C 0.80706(17) 0.16090(17) 0.25206(19)
C9J C 0.74794(17) 0.30706(17) 0.33910(19)
H4G H 0.77290 0.18160 0.24610
H4J H 0.75390 0.27290 0.31840
C10G C 0.82540(18) 0.14812(19) 0.3077(2)
C10J C 0.69230(18) 0.32540(19) 0.35188(20)
H5G H 0.80340 0.16020 0.33930
H5J H 0.66070 0.30340 0.33980
C11G C 0.8755(2) 0.1180(2) 0.3166(2)
C11J C 0.6834(2) 0.3755(2) 0.3820(2)
H6G H 0.88790 0.10980 0.35420
H6J H 0.64580 0.38790 0.39020
C12G C 0.9074(3) 0.0998(2) 0.2701(2)
C12J C 0.7299(3) 0.4074(2) 0.4002(2)
H7G H 0.94140 0.07890 0.27630
H7J H 0.72370 0.44140 0.42110
C13G C 0.8904(2) 0.1116(2) 0.2145(2)
C13J C 0.7855(2) 0.3904(2) 0.3884(2)
H8G H 0.91250 0.09890 0.18320
H8J H 0.81680 0.41250 0.40110
C14G C 0.81408(15) 0.10897(15) 0.10696(17)
C14J C 0.89304(15) 0.31408(15) 0.39103(17)
C15G C 0.76650(18) 0.07291(18) 0.11302(20)
C15J C 0.88698(18) 0.26650(18) 0.42709(20)
H9G H 0.73950 0.07920 0.14240
H9J H 0.85760 0.23950 0.42080
C16G C 0.7599(2) 0.0269(2) 0.0741(3)
C16J C 0.9259(2) 0.2599(2) 0.4731(3)
H10G H 0.72840 0.00190 0.07770
H10J H 0.92230 0.22840 0.49810
C17G C 0.7994(2) 0.0185(2) 0.0310(4)
C17J C 0.9690(2) 0.2994(2) 0.4815(4)
H11G H 0.79410 -0.01170 0.00480
H11J H 0.99520 0.29410 0.51170
C18G C 0.8460(3) 0.0532(2) 0.0258(3)
C18J C 0.9742(3) 0.3460(2) 0.4468(3)
H12G H 0.87270 0.04630 -0.00360
H12J H 1.00360 0.37270 0.45370
C19G C 0.85487(20) 0.09990(19) 0.06435(19)
C19J C 0.93565(20) 0.35487(19) 0.40010(19)
H13G H 0.88730 0.12380 0.06100
H13J H 0.93900 0.38730 0.37620
N1G N 0.81285(12) 0.28857(12) 0.06327(12)
N1J N 0.93673(12) 0.31285(12) 0.21143(12)
N2G N 0.82144(12) 0.15657(12) 0.14681(15)
N2J N 0.85319(12) 0.32144(12) 0.34343(15)
O1G O 0.83695(11) 0.40065(11) 0.05266(13)
O1J O 0.94734(11) 0.33695(11) 0.09935(13)
O2G O 0.80523(14) 0.40210(17) -0.03803(16)
O2J O 1.03803(14) 0.30523(17) 0.09790(16)
O3G O 0.84404(11) 0.24943(11) 0.16360(11)
O3J O 0.83640(11) 0.34404(11) 0.25057(11)
#END

data_CSD_CIF_FULHOJ
_audit_creation_date 1988-08-15
_audit_creation_method CSD-ConQuest-V1
_database_code_CSD FULHOJ
_database_code_depnum_ccdc_archive 'CCDC 1161039'
_chemical_formula_sum 'C3 H18 F6 Fe1 N9'
_chemical_formula_moiety
;
3(C1 H6 N3 1+),F6 Fe1 3-
;
_journal_coden_Cambridge 208
_journal_volume 69
_journal_year 1987
_journal_page_first 76
_journal_name_full 'J.Solid State Chem. '
loop_
_publ_author_name
"J.L.Fourquet"
"F.Plet"
"Y.Calage"
"R.de Pape"
_chemical_name_systematic
;
tris(Guanidinium) hexafluoro-iron
;
_cell_volume   2821.152
_exptl_crystal_colour 'colorless'
_exptl_crystal_density_diffrn 1.648
_diffrn_ambient_temperature ?
_diffrn_special_details
;
The study was carried out at room temperature,in the range 283-303K

;
#These two values have been output from a single CSD field.
_refine_ls_R_factor_gt 0.0409
_refine_ls_wR_factor_gt 0.0409
_symmetry_cell_setting cubic
_symmetry_space_group_name_H-M 'P a 3'
_symmetry_Int_Tables_number 205
loop_
_symmetry_equiv_pos_site_id
_symmetry_equiv_pos_as_xyz
1 x,y,z
2 z,x,y
3 y,z,x
4 -x,1/2+y,1/2-z
5 -z,1/2+x,1/2-y
6 -y,1/2+z,1/2-x
7 1/2-x,-y,1/2+z
8 1/2-z,-x,1/2+y
9 1/2-y,-z,1/2+x
10 1/2+x,1/2-y,-z
11 1/2+z,1/2-x,-y
12 1/2+y,1/2-z,-x
13 -x,-y,-z
14 -z,-x,-y
15 -y,-z,-x
16 x,-1/2-y,-1/2+z
17 z,-1/2-x,-1/2+y
18 y,-1/2-z,-1/2+x
19 -1/2+x,y,-1/2-z
20 -1/2+z,x,-1/2-y
21 -1/2+y,z,-1/2-x
22 -1/2-x,-1/2+y,z
23 -1/2-z,-1/2+x,y
24 -1/2-y,-1/2+z,x
_cell_length_a 14.130(5)
_cell_length_b 14.130(5)
_cell_length_c 14.130(5)
_cell_angle_alpha 90
_cell_angle_beta 90
_cell_angle_gamma 90
_cell_formula_units_Z 8
loop_
_atom_type_symbol
_atom_type_radius_bond
C 0.68
H 0.23
F 0.64
Fe 1.34
N 0.68
loop_
_atom_site_label
_atom_site_type_symbol
_atom_site_fract_x
_atom_site_fract_y
_atom_site_fract_z
C1 C 0.2648(5) 0.2511(9) 0.0263(6)
N1 N 0.2179(6) 0.3319(6) 0.0385(7)
N2 N 0.3600(5) 0.2532(6) 0.0231(6)
N3 N 0.2199(6) 0.1692(7) 0.0153(6)
H1 H 0.26490 0.38470 0.01990
H2 H 0.14330 0.33700 0.01940
H3 H 0.14510 0.17050 0.00280
H4 H 0.26040 0.11780 -0.01780
H5 H 0.38520 0.18480 0.01070
H6 H 0.38830 0.31700 0.00410
Fe1 Fe 0.00000 0.00000 0.00000
F1 F -0.1317(5) 0.0237(5) -0.0286(5)
Fe2 Fe 0.50000 0.50000 0.50000
F2 F 0.5267(6) 0.4795(5) 0.6330(5)
F1L F 0.1317(5) -0.0237(5) 0.0286(5)
F1A F -0.0286(5) -0.1317(5) 0.0237(5)
F1M F 0.0286(5) 0.1317(5) -0.0237(5)
F1B F 0.0237(5) -0.0286(5) -0.1317(5)
F1N F -0.0237(5) 0.0286(5) 0.1317(5)
F2L F 0.4733(6) 0.5205(5) 0.3670(5)
F2A F 0.6330(6) 0.5267(5) 0.4795(5)
F2M F 0.3670(6) 0.4733(5) 0.5205(5)
F2B F 0.4795(6) 0.6330(5) 0.5267(5)
F2N F 0.5205(6) 0.3670(5) 0.4733(5)
#END

data_CSD_CIF_GAKTUI
_audit_creation_date 2005-02-28
_audit_creation_method CSD-ConQuest-V1
_database_code_CSD GAKTUI
_database_code_depnum_ccdc_archive 'CCDC 227327'
_chemical_formula_sum 'C72 H66 Cl3 Fe1 N6 S6'
_chemical_formula_moiety
;
C72 H66 Fe1 N6 S6 3+,3(Cl1 1-)
;
_journal_coeditor_code "IUCr BM1594"
_journal_coden_Cambridge 591
_journal_volume 61
_journal_year 2005
_journal_page_first m34
_journal_name_full 'Acta Crystallogr.,Sect.C:Cryst.Struct.Commun. '
loop_
_publ_author_name
"S.H.Dale"
"M.R.J.Elsegood"
"K.E.Holmes"
"P.F.Kelly"
_chemical_name_systematic
;
hexakis(S,S-Diphenylsulfimide)-iron(iii) trichloride
;
_cell_volume   6704.867
_exptl_crystal_colour 'yellow'
_exptl_crystal_density_diffrn 1.357
_exptl_crystal_description 'prism'
_diffrn_ambient_temperature 120
#These two values have been output from a single CSD field.
_refine_ls_R_factor_gt 0.0462
_refine_ls_wR_factor_gt 0.0462
_symmetry_cell_setting cubic
_symmetry_space_group_name_H-M 'P a -3'
_symmetry_Int_Tables_number 205
loop_
_symmetry_equiv_pos_site_id
_symmetry_equiv_pos_as_xyz
1 x,y,z
2 z,x,y
3 y,z,x
4 1/2+x,y,1/2-z
5 x,1/2-y,1/2+z
6 1/2-x,1/2+y,z
7 1/2-z,1/2+x,y
8 1/2+z,x,1/2-y
9 z,1/2-x,1/2+y
10 y,1/2-z,1/2+x
11 1/2-y,1/2+z,x
12 1/2+y,z,1/2-x
13 -x,-y,-z
14 -z,-x,-y
15 -y,-z,-x
16 -1/2-x,-y,-1/2+z
17 -x,-1/2+y,-1/2-z
18 -1/2+x,-1/2-y,-z
19 -1/2+z,-1/2-x,-y
20 -1/2-z,-x,-1/2+y
21 -z,-1/2+x,-1/2-y
22 -y,-1/2+z,-1/2-x
23 -1/2+y,-1/2-z,-x
24 -1/2-y,-z,-1/2+x
_cell_length_a 18.8566(4)
_cell_length_b 18.8566(4)
_cell_length_c 18.8566(4)
_cell_angle_alpha 90
_cell_angle_beta 90
_cell_angle_gamma 90
_cell_formula_units_Z 4
loop_
_atom_type_symbol
_atom_type_radius_bond
C 0.68
H 0.23
Cl 0.99
Fe 1.34
N 0.68
S 1.02
loop_
_atom_site_label
_atom_site_type_symbol
_atom_site_fract_x
_atom_site_fract_y
_atom_site_fract_z
Fe1 Fe 0.00000 0.50000 0.50000
N1 N 0.03185(11) 0.57209(11) 0.42297(11)
H1 H -0.0004(17) 0.5942(16) 0.4034(16)
S1 S 0.10695(3) 0.60826(3) 0.41344(3)
C1 C 0.12315(14) 0.61979(13) 0.32077(13)
C2 C 0.06855(15) 0.63534(14) 0.27394(14)
H2 H 0.02150 0.64230 0.29060
C3 C 0.08410(18) 0.64050(16) 0.20221(15)
H3 H 0.04750 0.65080 0.16920
C4 C 0.15299(19) 0.63060(16) 0.17889(16)
H4 H 0.16310 0.63400 0.12960
C5 C 0.20720(18) 0.61597(16) 0.22546(17)
H5 H 0.25440 0.61030 0.20870
C6 C 0.19204(15) 0.60964(15) 0.29753(15)
H6 H 0.22860 0.59850 0.33030
C7 C 0.10215(13) 0.69942(13) 0.44071(13)
C8 C 0.16229(14) 0.74159(14) 0.43413(14)
H7 H 0.20410 0.72320 0.41290
C9 C 0.16052(15) 0.81049(15) 0.45880(15)
H8 H 0.20140 0.83960 0.45470
C10 C 0.09977(16) 0.83715(14) 0.48932(14)
H9 H 0.09870 0.88470 0.50580
C11 C 0.04041(15) 0.79486(14) 0.49594(14)
H10 H -0.00130 0.81350 0.51730
C12 C 0.04108(13) 0.72533(13) 0.47173(13)
H11 H 0.00030 0.69610 0.47640
Cl1 Cl -0.12579(3) 0.62579(3) 0.37421(3)
Cl2 Cl 0.00000 0.50000 0.00000
N1F N 0.07703(11) 0.53185(11) 0.57209(11)
H1F H 0.0966(17) 0.4996(16) 0.5942(16)
S1F S 0.08656(3) 0.60695(3) 0.60826(3)
C1F C 0.17923(14) 0.62315(13) 0.61979(13)
C2F C 0.22606(15) 0.56855(14) 0.63534(14)
H2F H 0.20940 0.52150 0.64230
C3F C 0.29779(18) 0.58410(16) 0.64050(15)
H3F H 0.33080 0.54750 0.65080
C4F C 0.32111(19) 0.65299(16) 0.63060(16)
H4F H 0.37040 0.66310 0.63400
C5F C 0.27454(18) 0.70720(16) 0.61597(17)
H5F H 0.29130 0.75440 0.61030
C6F C 0.20247(15) 0.69204(15) 0.60964(15)
H6F H 0.16970 0.72860 0.59850
C7F C 0.05929(13) 0.60215(13) 0.69942(13)
C8F C 0.06587(14) 0.66229(14) 0.74159(14)
H7F H 0.08710 0.70410 0.72320
C9F C 0.04120(15) 0.66052(15) 0.81049(15)
H8F H 0.04530 0.70140 0.83960
C10F C 0.01068(16) 0.59977(14) 0.83715(14)
H9F H -0.00580 0.59870 0.88470
C11F C 0.00406(15) 0.54041(14) 0.79486(14)
H10F H -0.01730 0.49870 0.81350
C12F C 0.02827(13) 0.54108(13) 0.72533(13)
H11F H 0.02360 0.50030 0.69610
N1K N 0.07209(11) 0.42297(11) 0.46815(11)
H1K H 0.0942(17) 0.4034(16) 0.5004(16)
S1K S 0.10826(3) 0.41344(3) 0.39305(3)
C1K C 0.11979(14) 0.32077(13) 0.37685(13)
C2K C 0.13534(15) 0.27394(14) 0.43145(14)
H2K H 0.14230 0.29060 0.47850
C3K C 0.14050(18) 0.20221(16) 0.41590(15)
H3K H 0.15080 0.16920 0.45250
C4K C 0.13060(19) 0.17889(16) 0.34701(16)
H4K H 0.13400 0.12960 0.33690
C5K C 0.11597(18) 0.22546(16) 0.29280(17)
H5K H 0.11030 0.20870 0.24560
C6K C 0.10964(15) 0.29753(15) 0.30796(15)
H6K H 0.09850 0.33030 0.27140
C7K C 0.19942(13) 0.44071(13) 0.39785(13)
C8K C 0.24159(14) 0.43413(14) 0.33771(14)
H7K H 0.22320 0.41290 0.29590
C9K C 0.31049(15) 0.45880(15) 0.33948(15)
H8K H 0.33960 0.45470 0.29860
C10K C 0.33715(16) 0.48932(14) 0.40023(14)
H9K H 0.38470 0.50580 0.40130
C11K C 0.29486(15) 0.49594(14) 0.45959(14)
H10K H 0.31350 0.51730 0.50130
C12K C 0.22533(13) 0.47173(13) 0.45892(13)
H11K H 0.19610 0.47640 0.49970
N1L N -0.03185(11) 0.42791(11) 0.57703(11)
H1L H 0.0004(17) 0.4058(16) 0.5966(16)
S1L S -0.10695(3) 0.39174(3) 0.58656(3)
C1L C -0.12315(14) 0.38021(13) 0.67923(13)
C2L C -0.06855(15) 0.36466(14) 0.72606(14)
H2L H -0.02150 0.35770 0.70940
C3L C -0.08410(18) 0.35950(16) 0.79779(15)
H3L H -0.04750 0.34920 0.83080
C4L C -0.15299(19) 0.36940(16) 0.82111(16)
H4L H -0.16310 0.36600 0.87040
C5L C -0.20720(18) 0.38403(16) 0.77454(17)
H5L H -0.25440 0.38970 0.79130
C6L C -0.19204(15) 0.39036(15) 0.70247(15)
H6L H -0.22860 0.40150 0.66970
C7L C -0.10215(13) 0.30058(13) 0.55929(13)
C8L C -0.16229(14) 0.25841(14) 0.56587(14)
H7L H -0.20410 0.27680 0.58710
C9L C -0.16052(15) 0.18951(15) 0.54120(15)
H8L H -0.20140 0.16040 0.54530
C10L C -0.09977(16) 0.16285(14) 0.51068(14)
H9L H -0.09870 0.11530 0.49420
C11L C -0.04041(15) 0.20514(14) 0.50406(14)
H10L H 0.00130 0.18650 0.48270
C12L C -0.04108(13) 0.27467(13) 0.52827(13)
H11L H -0.00030 0.30390 0.52360
N1R N -0.07703(11) 0.46815(11) 0.42791(11)
H1R H -0.0966(17) 0.5004(16) 0.4058(16)
S1R S -0.08656(3) 0.39305(3) 0.39174(3)
C1R C -0.17923(14) 0.37685(13) 0.38021(13)
C2R C -0.22606(15) 0.43145(14) 0.36466(14)
H2R H -0.20940 0.47850 0.35770
C3R C -0.29779(18) 0.41590(16) 0.35950(15)
H3R H -0.33080 0.45250 0.34920
C4R C -0.32111(19) 0.34701(16) 0.36940(16)
H4R H -0.37040 0.33690 0.36600
C5R C -0.27454(18) 0.29280(16) 0.38403(17)
H5R H -0.29130 0.24560 0.38970
C6R C -0.20247(15) 0.30796(15) 0.39036(15)
H6R H -0.16970 0.27140 0.40150
C7R C -0.05929(13) 0.39785(13) 0.30058(13)
C8R C -0.06587(14) 0.33771(14) 0.25841(14)
H7R H -0.08710 0.29590 0.27680
C9R C -0.04120(15) 0.33948(15) 0.18951(15)
H8R H -0.04530 0.29860 0.16040
C10R C -0.01068(16) 0.40023(14) 0.16285(14)
H9R H 0.00580 0.40130 0.11530
C11R C -0.00406(15) 0.45959(14) 0.20514(14)
H10R H 0.01730 0.50130 0.18650
C12R C -0.02827(13) 0.45892(13) 0.27467(13)
H11R H -0.02360 0.49970 0.30390
N1W N -0.07209(11) 0.57703(11) 0.53185(11)
H1W H -0.0942(17) 0.5966(16) 0.4996(16)
S1W S -0.10826(3) 0.58656(3) 0.60695(3)
C1W C -0.11979(14) 0.67923(13) 0.62315(13)
C2W C -0.13534(15) 0.72606(14) 0.56855(14)
H2W H -0.14230 0.70940 0.52150
C3W C -0.14050(18) 0.79779(16) 0.58410(15)
H3W H -0.15080 0.83080 0.54750
C4W C -0.13060(19) 0.82111(16) 0.65299(16)
H4W H -0.13400 0.87040 0.66310
C5W C -0.11597(18) 0.77454(16) 0.70720(17)
H5W H -0.11030 0.79130 0.75440
C6W C -0.10964(15) 0.70247(15) 0.69204(15)
H6W H -0.09850 0.66970 0.72860
C7W C -0.19942(13) 0.55929(13) 0.60215(13)
C8W C -0.24159(14) 0.56587(14) 0.66229(14)
H7W H -0.22320 0.58710 0.70410
C9W C -0.31049(15) 0.54120(15) 0.66052(15)
H8W H -0.33960 0.54530 0.70140
C10W C -0.33715(16) 0.51068(14) 0.59977(14)
H9W H -0.38470 0.49420 0.59870
C11W C -0.29486(15) 0.50406(14) 0.54041(14)
H10W H -0.31350 0.48270 0.49870
C12W C -0.22533(13) 0.52827(13) 0.54108(13)
H11W H -0.19610 0.52360 0.50030
#END

data_CSD_CIF_GIXQUZ
_audit_creation_date 1999-05-04
_audit_creation_method CSD-ConQuest-V1
_database_code_CSD GIXQUZ
_database_code_depnum_ccdc_archive 'CCDC 1169019; CCDC 406275'
_database_code_depnum_ccdc_fiz 'CSD 406275'
_chemical_formula_sum 'C20 H39 Mo1 O3 P3'
_chemical_formula_moiety
;
C20 H39 Mo1 O3 P3
;
_journal_coden_Cambridge 1290
_journal_year 1998
_journal_page_first 693
_journal_name_full 'Eur.J.Inorg.Chem. '
loop_
_publ_author_name
"J.Hunger"
"S.Beyreuther"
"G.Huttner"
"K.Allinger"
"U.Radelof"
"L.Zsolnai"
_chemical_name_systematic
;
Tricarbonyl-(1,1,1-tris(diethylphosphinomethyl)ethane)-molybdenum
;
_cell_volume   5020.414
_exptl_crystal_density_diffrn 1.366
_diffrn_ambient_temperature ?
_diffrn_special_details
;
The study was carried out at room temperature,in the range 283-303K

;
#These two values have been output from a single CSD field.
_refine_ls_R_factor_gt 0.0281
_refine_ls_wR_factor_gt 0.0281
_symmetry_cell_setting cubic
_symmetry_space_group_name_H-M 'P a 3'
_symmetry_Int_Tables_number 205
loop_
_symmetry_equiv_pos_site_id
_symmetry_equiv_pos_as_xyz
1 x,y,z
2 z,x,y
3 y,z,x
4 1/2-x,-y,1/2+z
5 -x,1/2+y,1/2-z
6 1/2+x,1/2-y,-z
7 1/2+z,1/2-x,-y
8 1/2-z,-x,1/2+y
9 -z,1/2+x,1/2-y
10 -y,1/2+z,1/2-x
11 1/2+y,1/2-z,-x
12 1/2-y,-z,1/2+x
13 -x,-y,-z
14 -z,-x,-y
15 -y,-z,-x
16 -1/2+x,y,-1/2-z
17 x,-1/2-y,-1/2+z
18 -1/2-x,-1/2+y,z
19 -1/2-z,-1/2+x,y
20 -1/2+z,x,-1/2-y
21 z,-1/2-x,-1/2+y
22 y,-1/2-z,-1/2+x
23 -1/2-y,-1/2+z,x
24 -1/2+y,z,-1/2-x
_cell_length_a 17.123(3)
_cell_length_b 17.123(3)
_cell_length_c 17.123(3)
_cell_angle_alpha 90
_cell_angle_beta 90
_cell_angle_gamma 90
_cell_formula_units_Z 8
loop_
_atom_type_symbol
_atom_type_radius_bond
C 0.68
H 0.23
Mo 1.47
O 0.68
P 1.05
loop_
_atom_site_label
_atom_site_type_symbol
_atom_site_fract_x
_atom_site_fract_y
_atom_site_fract_z
Mo1 Mo 0.346027(12) 0.346027(12) 0.346027(12)
P1 P 0.20601(4) 0.30751(4) 0.36219(3)
C1 C 0.3660(2) 0.3305(2) 0.4592(2)
O1 O 0.3774(2) 0.3241(2) 0.52517(13)
C2 C 0.16267(13) 0.2581(2) 0.27650(14)
H1 H 0.12636(13) 0.2191(2) 0.29571(14)
H2 H 0.13228(13) 0.2965(2) 0.24804(14)
C3 C 0.21761(13) 0.21761(13) 0.21761(13)
C4 C 0.16551(15) 0.16551(15) 0.16551(15)
H3 H 0.1442(20) 0.1237(6) 0.1962(14)
H4 H 0.1962(6) 0.1442(14) 0.1237(20)
H5 H 0.1237(14) 0.1962(20) 0.1442(6)
C5 C 0.18615(15) 0.2386(2) 0.4428(2)
H6 H 0.21538(15) 0.1911(2) 0.4326(2)
H7 H 0.20709(15) 0.2611(2) 0.4904(2)
C6 C 0.1012(2) 0.2154(2) 0.4587(2)
H8 H 0.0996(2) 0.1771(9) 0.4997(9)
H9 H 0.0787(4) 0.1937(12) 0.4122(4)
H10 H 0.0720(3) 0.2607(3) 0.4743(12)
C7 C 0.1319(2) 0.3839(2) 0.3803(2)
H11 H 0.1341(2) 0.4220(2) 0.3385(2)
H12 H 0.0804(2) 0.3602(2) 0.3795(2)
C8 C 0.1433(2) 0.4253(2) 0.4576(2)
H13 H 0.1351(12) 0.3891(4) 0.4996(2)
H14 H 0.1065(8) 0.4674(8) 0.4619(6)
H15 H 0.1954(4) 0.4457(11) 0.4604(5)
C2A C 0.27650(13) 0.16267(20) 0.25810(14)
P1A P 0.36219(4) 0.20601(4) 0.30751(3)
P1B P 0.30751(4) 0.36219(4) 0.20601(3)
C2B C 0.25810(13) 0.2765(2) 0.16267(14)
H1B H 0.21910(13) 0.29571(20) 0.12636(14)
H2B H 0.29650(13) 0.24804(20) 0.13228(14)
C5B C 0.23860(15) 0.4428(2) 0.18615(20)
H6B H 0.19110(15) 0.4326(2) 0.21538(20)
H7B H 0.26110(15) 0.4904(2) 0.20709(20)
C6B C 0.2154(2) 0.4587(2) 0.1012(2)
H8B H 0.1771(2) 0.4997(9) 0.0996(9)
H9B H 0.1937(4) 0.4122(12) 0.0787(4)
H10B H 0.2607(3) 0.4743(3) 0.0720(12)
C7B C 0.3839(2) 0.3803(2) 0.1319(2)
H11B H 0.4220(2) 0.3385(2) 0.1341(2)
H12B H 0.3602(2) 0.3795(2) 0.0804(2)
C8B C 0.4253(2) 0.4576(2) 0.1433(2)
H13B H 0.3891(12) 0.4996(4) 0.1351(2)
H14B H 0.4674(8) 0.4619(8) 0.1065(6)
H15B H 0.4457(4) 0.4604(11) 0.1954(5)
C1A C 0.4592(2) 0.3660(2) 0.3305(2)
O1A O 0.52517(20) 0.3774(2) 0.32410(13)
C1B C 0.3305(2) 0.4592(2) 0.3660(2)
O1B O 0.3241(2) 0.52517(20) 0.37740(13)
C5A C 0.44280(15) 0.18615(20) 0.2386(2)
H6A H 0.43260(15) 0.21538(20) 0.1911(2)
H7A H 0.49040(15) 0.20709(20) 0.2611(2)
C6A C 0.4587(2) 0.1012(2) 0.2154(2)
H8A H 0.4997(2) 0.0996(9) 0.1771(9)
H9A H 0.4122(4) 0.0787(12) 0.1937(4)
H10A H 0.4743(3) 0.0720(3) 0.2607(12)
C7A C 0.3803(2) 0.1319(2) 0.3839(2)
H11A H 0.3385(2) 0.1341(2) 0.4220(2)
H12A H 0.3795(2) 0.0804(2) 0.3602(2)
C8A C 0.4576(2) 0.1433(2) 0.4253(2)
H13A H 0.4996(12) 0.1351(4) 0.3891(2)
H14A H 0.4619(8) 0.1065(8) 0.4674(6)
H15A H 0.4604(4) 0.1954(11) 0.4457(5)
H1A H 0.29571(13) 0.12636(20) 0.21910(14)
H2A H 0.24804(13) 0.13228(20) 0.29650(14)
#END

data_CSD_CIF_HALCUW
_audit_creation_date 2021-09-09
_audit_creation_method CSD-ConQuest-V1
_database_code_CSD HALCUW
_database_code_depnum_ccdc_archive 'CCDC 2097441'
_chemical_formula_sum 'C39 H48 N15 O15 Sm1'
_chemical_formula_moiety
;
C39 H48 N15 O15 Sm1
;
_journal_coden_Cambridge 155
_journal_volume 528
_journal_year 2021
_journal_page_first 120598
_journal_name_full 'Inorg.Chim.Acta '
loop_
_publ_author_name
"Yi Dai"
"Ting-Xiao Shen"
"Juan Min"
"Long-Sheng Zhang"
"Yu-Lan Gu"
"Jie Yang"
_chemical_name_systematic
;
tris(1,3-diethoxy-3-oxo-2-[5-(pyridin-2-yl)-2H-tetrazol-2-yl]prop-1-en-1-olato
)-triaqua-samarium(iii)
;
_cell_volume  10097.304
_exptl_crystal_colour 'black'
_exptl_special_details
;
We calculate void space in the structure

;
_diffrn_ambient_temperature 296
#These two values have been output from a single CSD field.
_refine_ls_R_factor_gt 0.0466
_refine_ls_wR_factor_gt 0.0466
_symmetry_cell_setting cubic
_symmetry_space_group_name_H-M 'P a -3'
_symmetry_Int_Tables_number 205
loop_
_symmetry_equiv_pos_site_id
_symmetry_equiv_pos_as_xyz
1 x,y,z
2 1/2-x,-y,1/2+z
3 -x,1/2+y,1/2-z
4 1/2+x,1/2-y,-z
5 z,x,y
6 1/2+z,1/2-x,-y
7 1/2-z,-x,1/2+y
8 -z,1/2+x,1/2-y
9 y,z,x
10 -y,1/2+z,1/2-x
11 1/2+y,1/2-z,-x
12 1/2-y,-z,1/2+x
13 -x,-y,-z
14 -1/2+x,y,-1/2-z
15 x,-1/2-y,-1/2+z
16 -1/2-x,-1/2+y,z
17 -z,-x,-y
18 -1/2-z,-1/2+x,y
19 -1/2+z,x,-1/2-y
20 z,-1/2-x,-1/2+y
21 -y,-z,-x
22 y,-1/2-z,-1/2+x
23 -1/2-y,-1/2+z,x
24 -1/2+y,z,-1/2-x
_cell_length_a 21.614(2)
_cell_length_b 21.614(2)
_cell_length_c 21.614(2)
_cell_angle_alpha 90
_cell_angle_beta 90
_cell_angle_gamma 90
_cell_formula_units_Z 8
loop_
_atom_type_symbol
_atom_type_radius_bond
C 0.68
H 0.23
N 0.68
O 0.68
Sm 1.98
loop_
_atom_site_label
_atom_site_type_symbol
_atom_site_fract_x
_atom_site_fract_y
_atom_site_fract_z
Sm1 Sm 0.64722(2) -0.14722(2) 0.14722(2)
O1 O 0.67231(13) -0.05787(12) 0.21342(12)
O2 O 0.66392(14) -0.05528(12) 0.08534(13)
O3 O 0.75917(12) -0.15172(12) 0.17692(13)
H1 H 0.76290 -0.14270 0.21360
N1 N 0.66284(16) 0.09715(15) 0.15212(15)
O4 O 0.67163(18) 0.03658(14) 0.25714(15)
N2 N 0.62176(17) 0.29857(16) 0.14589(16)
O5 O 0.6584(2) 0.04038(14) 0.04492(16)
N3 N 0.61174(16) 0.13175(16) 0.15623(16)
N4 N 0.69604(18) 0.18959(17) 0.1468(2)
N5 N 0.71365(18) 0.13153(18) 0.1465(2)
C1 C 0.59402(18) 0.24387(18) 0.15550(17)
C2 C 0.66339(19) 0.03120(17) 0.15110(17)
C3 C 0.66945(17) -0.00081(17) 0.20743(18)
C4 C 0.6340(2) 0.1889(2) 0.15290(17)
C5 C 0.5321(2) 0.2387(2) 0.1683(3)
H2 H 0.51440 0.20010 0.17510
C6 C 0.66186(19) 0.00122(17) 0.09357(19)
C7 C 0.5232(3) 0.3473(2) 0.1609(3)
H3 H 0.50010 0.38360 0.16240
C8 C 0.5858(3) 0.3490(2) 0.1485(2)
H4 H 0.60400 0.38730 0.14150
C9 C 0.4961(2) 0.2918(3) 0.1709(3)
H5 H 0.45400 0.28920 0.17940
C10 C 0.6776(4) 0.0074(3) 0.3170(3)
H6 H 0.70090 -0.03070 0.31220
H7 H 0.70120 0.03440 0.34390
C11 C 0.6597(4) 0.0136(3) -0.0156(3)
H8 H 0.64200 0.04220 -0.04530
H9 H 0.63540 -0.02410 -0.01610
C12 C 0.7283(6) -0.0011(4) -0.0336(4)
H10 H 0.72940 -0.01910 -0.07420
H11 H 0.75200 0.03640 -0.03340
H12 H 0.74550 -0.02970 -0.00430
C13 C 0.6210(5) -0.0063(5) 0.3456(4)
H13 H 0.62860 -0.02550 0.38490
H14 H 0.59800 0.03120 0.35160
H15 H 0.59770 -0.03400 0.31980
O1E O 0.71342(13) -0.17231(12) 0.05787(12)
O2E O 0.58534(14) -0.16392(12) 0.05528(13)
O3E O 0.67692(12) -0.25917(12) 0.15172(13)
H1E H 0.71360 -0.26290 0.14270
N1E N 0.65212(16) -0.16284(15) -0.09715(15)
O4E O 0.75714(18) -0.17163(14) -0.03658(15)
N2E N 0.64589(17) -0.12176(16) -0.29857(16)
O5E O 0.54492(20) -0.15840(14) -0.04038(16)
N3E N 0.65623(16) -0.11174(16) -0.13175(16)
N4E N 0.64680(18) -0.19604(17) -0.18959(20)
N5E N 0.64650(18) -0.21365(18) -0.13153(20)
C1E C 0.65550(18) -0.09402(18) -0.24387(17)
C2E C 0.65110(19) -0.16339(17) -0.03120(17)
C3E C 0.70743(17) -0.16945(17) 0.00081(18)
C4E C 0.6529(2) -0.1340(2) -0.18890(17)
C5E C 0.6683(2) -0.0321(2) -0.2387(3)
H2E H 0.67510 -0.01440 -0.20010
C6E C 0.59357(19) -0.16186(17) -0.00122(19)
C7E C 0.6609(3) -0.0232(2) -0.3473(3)
H3E H 0.66240 -0.00010 -0.38360
C8E C 0.6485(3) -0.0858(2) -0.3490(2)
H4E H 0.64150 -0.10400 -0.38730
C9E C 0.6709(2) 0.0039(3) -0.2918(3)
H5E H 0.67940 0.04600 -0.28920
C10E C 0.8170(4) -0.1776(3) -0.0074(3)
H6E H 0.81220 -0.20090 0.03070
H7E H 0.84390 -0.20120 -0.03440
C11E C 0.4844(4) -0.1597(3) -0.0136(3)
H8E H 0.45470 -0.14200 -0.04220
H9E H 0.48390 -0.13540 0.02410
C12E C 0.4664(6) -0.2283(4) 0.0011(4)
H10E H 0.42580 -0.22940 0.01910
H11E H 0.46660 -0.25200 -0.03640
H12E H 0.49570 -0.24550 0.02970
C13E C 0.8456(5) -0.1210(5) 0.0063(4)
H13E H 0.88490 -0.12860 0.02550
H14E H 0.85160 -0.09800 -0.03120
H15E H 0.81980 -0.09770 0.03400
O1K O 0.55787(13) -0.21342(12) 0.17231(12)
O2K O 0.55528(14) -0.08534(12) 0.16392(13)
O3K O 0.65172(12) -0.17692(12) 0.25917(13)
H1K H 0.64270 -0.21360 0.26290
N1K N 0.40285(16) -0.15212(15) 0.16284(15)
O4K O 0.46342(18) -0.25714(14) 0.17163(15)
N2K N 0.20143(17) -0.14589(16) 0.12176(16)
O5K O 0.45962(20) -0.04492(14) 0.15840(16)
N3K N 0.36825(16) -0.15623(16) 0.11174(16)
N4K N 0.31041(18) -0.14680(17) 0.19604(20)
N5K N 0.36847(18) -0.14650(18) 0.21365(20)
C1K C 0.25613(18) -0.15550(18) 0.09402(17)
C2K C 0.46880(19) -0.15110(17) 0.16339(17)
C3K C 0.50081(17) -0.20743(17) 0.16945(18)
C4K C 0.3111(2) -0.1529(2) 0.13400(17)
C5K C 0.2613(2) -0.1683(2) 0.0321(3)
H2K H 0.29990 -0.17510 0.01440
C6K C 0.49878(19) -0.09357(17) 0.16186(19)
C7K C 0.1527(3) -0.1609(2) 0.0232(3)
H3K H 0.11640 -0.16240 0.00010
C8K C 0.1510(3) -0.1485(2) 0.0858(2)
H4K H 0.11270 -0.14150 0.10400
C9K C 0.2082(2) -0.1709(3) -0.0039(3)
H5K H 0.21080 -0.17940 -0.04600
C10K C 0.4926(4) -0.3170(3) 0.1776(3)
H6K H 0.53070 -0.31220 0.20090
H7K H 0.46560 -0.34390 0.20120
C11K C 0.4864(4) 0.0156(3) 0.1597(3)
H8K H 0.45780 0.04530 0.14200
H9K H 0.52410 0.01610 0.13540
C12K C 0.5011(6) 0.0336(4) 0.2283(4)
H10K H 0.51910 0.07420 0.22940
H11K H 0.46360 0.03340 0.25200
H12K H 0.52970 0.00430 0.24550
C13K C 0.5063(5) -0.3456(5) 0.1210(4)
H13K H 0.52550 -0.38490 0.12860
H14K H 0.46880 -0.35160 0.09800
H15K H 0.53400 -0.31980 0.09770
#END

data_CSD_CIF_HCCYHB01
_audit_creation_date 2016-09-29
_audit_creation_method CSD-ConQuest-V1
_database_code_CSD HCCYHB01
_database_code_depnum_ccdc_archive 'CCDC 1497419'
_chemical_formula_sum 'C6 H6 Cl6'
_chemical_formula_moiety
;
C6 H6 Cl6
;
_journal_coden_Cambridge 182
_journal_volume 52
_journal_year 2016
_journal_page_first 12322
_journal_name_full 'Chem.Commun. '
loop_
_publ_author_name
"M.I.Rednic"
"R.A.Varga"
"A.Bende"
"I.G.Grosu"
"M.Miclaus"
"N.D.Hadade"
"A.Terec"
"E.Bogdan"
"I.Grosu"
_chemical_name_systematic
;
\b-1,2,3,4,5,6-hexachlorocyclohexane
;
_cell_volume   1017.137
_exptl_crystal_colour 'colorless'
_exptl_crystal_density_diffrn 1.899
_exptl_crystal_description 'block'
_diffrn_ambient_temperature 297
#These two values have been output from a single CSD field.
_refine_ls_R_factor_gt 0.0351
_refine_ls_wR_factor_gt 0.0351
_symmetry_cell_setting cubic
_symmetry_space_group_name_H-M 'P a -3'
_symmetry_Int_Tables_number 205
loop_
_symmetry_equiv_pos_site_id
_symmetry_equiv_pos_as_xyz
1 x,y,z
2 1/2-x,-y,1/2+z
3 -x,1/2+y,1/2-z
4 1/2+x,1/2-y,-z
5 z,x,y
6 1/2+z,1/2-x,-y
7 1/2-z,-x,1/2+y
8 -z,1/2+x,1/2-y
9 y,z,x
10 -y,1/2+z,1/2-x
11 1/2+y,1/2-z,-x
12 1/2-y,-z,1/2+x
13 -x,-y,-z
14 -1/2+x,y,-1/2-z
15 x,-1/2-y,-1/2+z
16 -1/2-x,-1/2+y,z
17 -z,-x,-y
18 -1/2-z,-1/2+x,y
19 -1/2+z,x,-1/2-y
20 z,-1/2-x,-1/2+y
21 -y,-z,-x
22 y,-1/2-z,-1/2+x
23 -1/2-y,-1/2+z,x
24 -1/2+y,z,-1/2-x
_cell_length_a 10.0568(12)
_cell_length_b 10.0568(12)
_cell_length_c 10.0568(12)
_cell_angle_alpha 90
_cell_angle_beta 90
_cell_angle_gamma 90
_cell_formula_units_Z 4
loop_
_atom_type_symbol
_atom_type_radius_bond
C 0.68
H 0.23
Cl 0.99
loop_
_atom_site_label
_atom_site_type_symbol
_atom_site_fract_x
_atom_site_fract_y
_atom_site_fract_z
Cl1 Cl 0.91839(8) 0.11550(7) 0.22245(7)
C1 C 0.9362(2) 0.0800(3) 0.3955(2)
H1 H 0.87790 0.13900 0.44660
Cl1R Cl 0.72245(8) -0.08161(7) 0.38450(7)
C1R C 0.8955(2) -0.0638(3) 0.4200(2)
H1R H 0.94660 -0.12210 0.36100
Cl1U Cl 1.11550(8) 0.27755(7) 0.41839(7)
C1U C 1.0800(2) 0.1045(3) 0.4362(2)
H1U H 1.13900 0.05340 0.37790
Cl1F Cl 1.27755(8) 0.08161(7) 0.61550(7)
C1F C 1.1045(2) 0.0638(3) 0.5800(2)
H1F H 1.05340 0.12210 0.63900
Cl1I Cl 0.88450(8) -0.27755(7) 0.58161(7)
C1I C 0.9200(2) -0.1045(3) 0.5638(2)
H1I H 0.86100 -0.05340 0.62210
Cl1L Cl 1.08161(8) -0.11550(7) 0.77755(7)
C1L C 1.0638(2) -0.0800(3) 0.6045(2)
H1L H 1.12210 -0.13900 0.55340
#END

data_CSD_CIF_HEVRUV
_audit_creation_date 1995-04-20
_audit_creation_method CSD-ConQuest-V1
_database_code_CSD HEVRUV
_database_code_depnum_ccdc_archive 'CCDC 1175237'
_chemical_formula_sum 'C1 H1 N3 O6'
_chemical_formula_moiety
;
C1 H1 N3 O6
;
_journal_coeditor_code "IUCr SE1040"
_journal_coden_Cambridge 591
_journal_volume 50
_journal_year 1994
_journal_page_first 1790
_journal_name_full 'Acta Crystallogr.,Sect.C:Cryst.Struct.Commun. '
loop_
_publ_author_name
"H.Schodel"
"R.Dienelt"
"H.Bock"
_chemical_name_systematic
;
Trinitromethane
;
_chemical_name_common
;
Teaching Subset: Fundamental Chemistry, Symmetry
;
_chemical_melting_point 571.65
_cell_volume   1111.291
_exptl_crystal_colour 'Colorless'
_exptl_crystal_density_diffrn 1.806
_exptl_special_details
;
Moisture-sensitive

;
_diffrn_ambient_temperature 200
#These two values have been output from a single CSD field.
_refine_ls_R_factor_gt 0.0317
_refine_ls_wR_factor_gt 0.0317
_symmetry_cell_setting cubic
_symmetry_space_group_name_H-M 'P a 3'
_symmetry_Int_Tables_number 205
loop_
_symmetry_equiv_pos_site_id
_symmetry_equiv_pos_as_xyz
1 x,y,z
2 z,x,y
3 y,z,x
4 -x,1/2+y,1/2-z
5 -z,1/2+x,1/2-y
6 -y,1/2+z,1/2-x
7 1/2-x,-y,1/2+z
8 1/2-z,-x,1/2+y
9 1/2-y,-z,1/2+x
10 1/2+x,1/2-y,-z
11 1/2+z,1/2-x,-y
12 1/2+y,1/2-z,-x
13 -x,-y,-z
14 -z,-x,-y
15 -y,-z,-x
16 x,-1/2-y,-1/2+z
17 z,-1/2-x,-1/2+y
18 y,-1/2-z,-1/2+x
19 -1/2+x,y,-1/2-z
20 -1/2+z,x,-1/2-y
21 -1/2+y,z,-1/2-x
22 -1/2-x,-1/2+y,z
23 -1/2-z,-1/2+x,y
24 -1/2-y,-1/2+z,x
_cell_length_a 10.358(1)
_cell_length_b 10.358(1)
_cell_length_c 10.358(1)
_cell_angle_alpha 90
_cell_angle_beta 90
_cell_angle_gamma 90
_cell_formula_units_Z 8
loop_
_atom_type_symbol
_atom_type_radius_bond
C 0.68
H 0.23
N 0.68
O 0.68
loop_
_atom_site_label
_atom_site_type_symbol
_atom_site_fract_x
_atom_site_fract_y
_atom_site_fract_z
O1 O 1.0266(1) 0.8675(1) 0.7821(1)
O2 O 0.9763(1) 0.6654(1) 0.7875(1)
N1 N 0.9515(1) 0.7789(1) 0.7912(1)
C1 C 0.8114(1) 0.81140 0.81140
H1 H 0.7613(14) 0.76130 0.76130
N1A N 0.7912(1) 0.9515(1) 0.7789(1)
N1B N 0.7789(1) 0.7912(1) 0.9515(1)
O1A O 0.7821(1) 1.0266(1) 0.8675(1)
O2A O 0.7875(1) 0.9763(1) 0.6654(1)
O1B O 0.8675(1) 0.7821(1) 1.0266(1)
O2B O 0.6654(1) 0.7875(1) 0.9763(1)
#END

data_CSD_CIF_HIRMAW
_audit_creation_date 1999-06-09
_audit_creation_method CSD-ConQuest-V1
_database_code_CSD HIRMAW
_database_code_depnum_ccdc_archive 'CCDC 117953'
_chemical_formula_sum 'C40 H57.66 O19.83 Ru4 V6'
_chemical_formula_moiety
;
C40 H56 O19 Ru4 V6,0.83(H2 O1)
;
_journal_coden_Cambridge 580
_journal_volume 17
_journal_year 1998
_journal_page_first 2817
_journal_name_full 'Polyhedron '
loop_
_publ_author_name
"G.Suss-Fink"
"L.Plasseraud"
"V.Ferrand"
"S.Stanislas"
"A.Neels"
"H.-Stoeckli-Evans"
"M.Henry"
"G.Laurenczy"
"R.Roulet"
_chemical_name_systematic
;
(\m~6~-Oxo)-dodecakis(\m~3~-oxo)-tetraoxo-tetrakis(\h^6^-p-cymene)-tetra-ruthe
nium hexa-vanadium hydrate
;
_cell_volume  32015.058
_exptl_crystal_colour 'purple'
_exptl_crystal_density_diffrn 1.949
_exptl_crystal_description 'block'
_exptl_crystal_preparation 'cyclohexane/toluene'
_diffrn_ambient_temperature ?
_diffrn_special_details
;
The study was carried out at room temperature,in the range 283-303K

;
#These two values have been output from a single CSD field.
_refine_ls_R_factor_gt 0.0366
_refine_ls_wR_factor_gt 0.0366
_symmetry_cell_setting cubic
_symmetry_space_group_name_H-M 'P a 3'
_symmetry_Int_Tables_number 205
loop_
_symmetry_equiv_pos_site_id
_symmetry_equiv_pos_as_xyz
1 x,y,z
2 y,z,x
3 z,x,y
4 1/2+x,y,1/2-z
5 1/2+y,z,1/2-x
6 1/2+z,x,1/2-y
7 1/2-y,1/2+z,x
8 1/2-z,1/2+x,y
9 z,1/2-x,1/2+y
10 x,1/2-y,1/2+z
11 y,1/2-z,1/2+x
12 1/2-x,1/2+y,z
13 -x,-y,-z
14 -y,-z,-x
15 -z,-x,-y
16 -1/2-x,-y,-1/2+z
17 -1/2-y,-z,-1/2+x
18 -1/2-z,-x,-1/2+y
19 -1/2+y,-1/2-z,-x
20 -1/2+z,-1/2-x,-y
21 -z,-1/2+x,-1/2-y
22 -x,-1/2+y,-1/2-z
23 -y,-1/2+z,-1/2-x
24 -1/2+x,-1/2-y,-z
_cell_length_a 31.753(2)
_cell_length_b 31.753(2)
_cell_length_c 31.753(2)
_cell_angle_alpha 90
_cell_angle_beta 90
_cell_angle_gamma 90
_cell_formula_units_Z 24
loop_
_atom_type_symbol
_atom_type_radius_bond
C 0.68
H 0.23
O 0.68
Ru 1.20
V 1.28
loop_
_atom_site_label
_atom_site_type_symbol
_atom_site_fract_x
_atom_site_fract_y
_atom_site_fract_z
V1 V 0.21161(3) 0.38100(3) 0.12326(3)
V2 V 0.22847(3) 0.29800(3) 0.07113(3)
V3 V 0.32255(3) 0.32727(3) 0.05422(3)
V4 V 0.30541(3) 0.41094(3) 0.10608(3)
V5 V 0.24609(3) 0.38743(3) 0.02931(3)
V6 V 0.28800(4) 0.32174(3) 0.14768(3)
Ru1 Ru 0.15907(2) 0.35823(2) 0.04856(2)
Ru2 Ru 0.30163(2) 0.24482(2) 0.09364(2)
Ru3 Ru 0.33418(2) 0.41359(2) 0.01580(2)
Ru4 Ru 0.27067(2) 0.40084(2) 0.19407(2)
O1 O 0.26691(12) 0.35435(11) 0.08898(11)
O2 O 0.23086(14) 0.41051(14) -0.01314(13)
O3 O 0.30327(15) 0.29763(14) 0.18957(13)
O4 O 0.20153(14) 0.25718(13) 0.05815(14)
O5 O 0.36238(13) 0.30900(13) 0.02883(13)
O6 O 0.33305(15) 0.45111(14) 0.11965(14)
O7 O 0.17137(13) 0.40041(13) 0.14704(13)
O8 O 0.25298(12) 0.42302(12) 0.13422(12)
O9 O 0.31564(13) 0.37418(13) 0.15316(12)
O10 O 0.23835(12) 0.34951(12) 0.16748(11)
O11 O 0.20261(12) 0.40324(12) 0.06803(12)
O12 O 0.28220(12) 0.42903(12) 0.05353(12)
O13 O 0.34490(12) 0.38037(12) 0.07246(12)
O14 O 0.18743(12) 0.33000(12) 0.10136(12)
O15 O 0.21596(12) 0.33527(12) 0.02506(11)
O16 O 0.29615(12) 0.36040(12) 0.01075(11)
O17 O 0.33034(12) 0.30313(12) 0.10817(12)
O18 O 0.25338(13) 0.27953(12) 0.12211(12)
O19 O 0.28135(12) 0.28466(12) 0.04518(12)
O20 O 0.2836(2) 0.2836(2) 0.2836(2)
O21 O 0.3276(6) 0.5379(6) 0.1674(7)
C1 C 0.1028(2) 0.3192(3) 0.0390(3)
C2 C 0.1191(2) 0.3317(3) -0.0006(2)
H1 H 0.1241(2) 0.3115(3) -0.0212(2)
C3 C 0.1276(2) 0.3738(3) -0.0090(2)
H2 H 0.1395(2) 0.3808(3) -0.0349(2)
C4 C 0.1188(2) 0.4063(3) 0.0199(3)
C5 C 0.1028(2) 0.3950(3) 0.0591(3)
H3 H 0.0971(2) 0.4158(3) 0.0790(3)
C6 C 0.0953(2) 0.3529(3) 0.0690(3)
H4 H 0.0851(2) 0.3461(3) 0.0956(3)
C7 C 0.0931(4) 0.2724(5) 0.0600(7)
H5 H 0.1014(4) 0.2666(5) 0.0892(7)
C8 C 0.1067(5) 0.2482(6) 0.0298(5)
H6 H 0.1045(48) 0.2192(7) 0.0384(20)
H7 H 0.1356(16) 0.2548(36) 0.0238(35)
H8 H 0.0899(33) 0.2527(37) 0.0051(16)
C9 C 0.0439(6) 0.2713(6) 0.0470(13)
H9 H 0.0296(41) 0.295(11) 0.059(17)
H10 H 0.0313(48) 0.2456(91) 0.057(17)
H11 H 0.0414(9) 0.273(20) 0.0169(18)
C10 C 0.1329(3) 0.4530(3) 0.0115(3)
H12 H 0.1090(6) 0.4693(6) 0.0027(25)
H13 H 0.1539(18) 0.4534(4) -0.0103(18)
H14 H 0.1445(23) 0.4647(9) 0.0368(7)
C11 C 0.3408(2) 0.1992(2) 0.0596(2)
C12 C 0.3573(2) 0.2058(2) 0.1002(2)
H15 H 0.3854(2) 0.2136(2) 0.1031(2)
C13 C 0.3321(2) 0.2008(2) 0.1371(2)
H16 H 0.3441(2) 0.2049(2) 0.1635(2)
C14 C 0.2892(2) 0.1896(2) 0.1338(3)
C15 C 0.2720(2) 0.1837(2) 0.0934(2)
H17 H 0.2437(2) 0.1767(2) 0.0906(2)
C16 C 0.2971(2) 0.1881(2) 0.0571(2)
H18 H 0.2850(2) 0.1837(2) 0.0308(2)
C17 C 0.3694(3) 0.2044(3) 0.0218(2)
H19 H 0.3872(3) 0.2290(3) 0.0275(2)
C18 C 0.3971(6) 0.1688(7) 0.0188(5)
H20 H 0.4229(29) 0.1771(17) 0.0053(67)
H21 H 0.3838(29) 0.1471(28) 0.0025(63)
H22 H 0.4032(61) 0.1583(48) 0.0465(7)
C19 C 0.3461(4) 0.2135(4) -0.0178(3)
H23 H 0.3656(5) 0.2225(28) -0.0391(9)
H24 H 0.3258(20) 0.2354(20) -0.0128(8)
H25 H 0.3318(23) 0.1885(8) -0.0271(15)
C20 C 0.2624(3) 0.1883(2) 0.1729(3)
H26 H 0.2669(14) 0.1621(8) 0.1873(10)
H27 H 0.2333(3) 0.1907(19) 0.1652(3)
H28 H 0.2700(13) 0.2112(11) 0.1911(8)
C21 C 0.3558(4) 0.4774(3) 0.0030(4)
C22 C 0.3287(3) 0.4645(3) -0.0281(4)
H29 H 0.3049(3) 0.4806(3) -0.0341(4)
C23 C 0.3360(3) 0.4278(4) -0.0507(2)
H30 H 0.3175(3) 0.4204(4) -0.0721(2)
C24 C 0.3698(3) 0.4023(3) -0.0423(3)
C25 C 0.3966(3) 0.4141(4) -0.0100(4)
H31 H 0.4191(3) 0.3968(4) -0.0028(4)
C26 C 0.3900(3) 0.4523(4) 0.0123(3)
H32 H 0.4088(3) 0.4604(4) 0.0333(3)
C27 C 0.3417(6) 0.5195(4) 0.0267(5)
H33 H 0.3133(6) 0.5167(4) 0.0385(5)
C28 C 0.3738(6) 0.5270(5) 0.0610(5)
H34 H 0.3649(26) 0.5502(33) 0.0783(31)
H35 H 0.4006(14) 0.5335(51) 0.0485(5)
H36 H 0.3764(38) 0.5022(18) 0.0780(32)
C29 C 0.3439(6) 0.5559(4) -0.0052(5)
H37 H 0.3430(54) 0.5823(4) 0.0095(6)
H38 H 0.3204(29) 0.5540(31) -0.0241(33)
H39 H 0.3696(24) 0.5540(31) -0.0209(37)
C30 C 0.3736(5) 0.3606(4) -0.0660(4)
H40 H 0.3915(34) 0.3643(11) -0.0901(24)
H41 H 0.3462(8) 0.3516(21) -0.0751(35)
H42 H 0.3856(38) 0.3397(12) -0.0478(14)
C31 C 0.3187(3) 0.4184(3) 0.2388(2)
C32 C 0.2954(3) 0.3853(3) 0.2559(2)
H43 H 0.3092(3) 0.3613(3) 0.2654(2)
C33 C 0.2523(2) 0.3876(2) 0.2590(2)
H44 H 0.2377(2) 0.3647(2) 0.2700(2)
C34 C 0.2288(2) 0.4238(2) 0.2459(2)
C35 C 0.2518(3) 0.4571(2) 0.2278(2)
H45 H 0.2376(3) 0.4806(2) 0.2177(2)
C36 C 0.2967(3) 0.4551(3) 0.2249(2)
H46 H 0.3116(3) 0.4778(3) 0.2139(2)
C37 C 0.3671(3) 0.4165(4) 0.2313(3)
H47 H 0.3730(3) 0.4279(4) 0.2033(3)
C38 C 0.3843(3) 0.3708(4) 0.2332(4)
H48 H 0.4138(7) 0.3708(5) 0.2265(28)
H49 H 0.3694(20) 0.3536(8) 0.2132(20)
H50 H 0.3803(26) 0.3596(11) 0.2610(9)
C39 C 0.3895(3) 0.4433(4) 0.2631(5)
H51 H 0.4187(8) 0.4358(26) 0.2638(28)
H52 H 0.3773(25) 0.4389(28) 0.2904(8)
H53 H 0.3867(32) 0.4724(5) 0.2555(21)
C40 C 0.1821(2) 0.4253(3) 0.2508(3)
H54 H 0.1748(3) 0.4459(13) 0.2716(14)
H55 H 0.1720(3) 0.3981(6) 0.2595(18)
H56 H 0.1695(3) 0.4327(18) 0.2243(5)
#END

data_CSD_CIF_HIYPIR
_audit_creation_date 2019-03-22
_audit_creation_method CSD-ConQuest-V1
_database_code_CSD HIYPIR
_database_code_depnum_ccdc_archive 'CCDC 1894511'
_chemical_formula_sum 'C27 H39 Mo3 S4'
_chemical_formula_moiety
;
C27 H39 Mo3 S4
;
_journal_coden_Cambridge 9
_journal_volume 58
_journal_year 2019
_journal_page_first 5230
_journal_name_full 'Inorg.Chem. '
loop_
_publ_author_name
"Y.Ohki"
"R.Hara"
"K.Munakata"
"M.Tada"
"T.Takayama"
"Y.Sakai"
"R.E.Cramer"
_chemical_name_systematic
;
tetrakis(\m-sulfido)-tris(\h^5^-tetramethylcyclopentadienyl)-tri-molybdenum
;
_cell_volume   5739.185
_exptl_crystal_colour 'colorless'
_exptl_crystal_density_diffrn 1.805
_exptl_crystal_description 'prism'
_diffrn_ambient_temperature 173
#These two values have been output from a single CSD field.
_refine_ls_R_factor_gt 0.0227
_refine_ls_wR_factor_gt 0.0227
_symmetry_cell_setting cubic
_symmetry_space_group_name_H-M 'P a -3'
_symmetry_Int_Tables_number 205
loop_
_symmetry_equiv_pos_site_id
_symmetry_equiv_pos_as_xyz
1 x,y,z
2 1/2+x,1/2-y,-z
3 -x,1/2+y,1/2-z
4 1/2-x,-y,1/2+z
5 z,x,y
6 1/2+z,1/2-x,-y
7 -z,1/2+x,1/2-y
8 1/2-z,-x,1/2+y
9 y,z,x
10 1/2+y,1/2-z,-x
11 -y,1/2+z,1/2-x
12 1/2-y,-z,1/2+x
13 -x,-y,-z
14 -1/2-x,-1/2+y,z
15 x,-1/2-y,-1/2+z
16 -1/2+x,y,-1/2-z
17 -z,-x,-y
18 -1/2-z,-1/2+x,y
19 z,-1/2-x,-1/2+y
20 -1/2+z,x,-1/2-y
21 -y,-z,-x
22 -1/2-y,-1/2+z,x
23 y,-1/2-z,-1/2+x
24 -1/2+y,z,-1/2-x
_cell_length_a 17.904(3)
_cell_length_b 17.904(3)
_cell_length_c 17.904(3)
_cell_angle_alpha 90
_cell_angle_beta 90
_cell_angle_gamma 90
_cell_formula_units_Z 8
loop_
_atom_type_symbol
_atom_type_radius_bond
C 0.68
H 0.23
Mo 1.54
S 1.02
loop_
_atom_site_label
_atom_site_type_symbol
_atom_site_fract_x
_atom_site_fract_y
_atom_site_fract_z
Mo1 Mo 0.140960(11) 0.214820(11) 0.085927(11)
S1 S 0.26669(4) 0.19984(4) 0.10945(4)
S2 S 0.09351(3) 0.09351(3) 0.09351(3)
C1 C 0.15603(14) 0.32080(14) 0.01168(14)
H1 H 0.19110 0.36290 0.02260
C2 C 0.07970(14) 0.31852(13) 0.03265(14)
C3 C 0.04831(13) 0.25317(13) 0.00061(13)
C4 C 0.10580(15) 0.21711(14) -0.04230(13)
C5 C 0.17166(15) 0.25983(15) -0.03597(14)
C6 C 0.03913(17) 0.37719(16) 0.07563(16)
H2 H -0.00300 0.35450 0.10230
H3 H 0.02040 0.41540 0.04120
H4 H 0.07320 0.40030 0.11170
C7 C -0.03176(15) 0.22991(15) 0.00304(16)
H5 H -0.05760 0.24900 -0.04120
H6 H -0.05530 0.25020 0.04810
H7 H -0.03480 0.17530 0.00390
C8 C 0.09347(18) 0.15153(16) -0.09254(15)
H8 H 0.06250 0.11450 -0.06690
H9 H 0.14170 0.12920 -0.10550
H10 H 0.06820 0.16810 -0.13820
C9 C 0.24424(18) 0.2468(2) -0.07630(17)
H11 H 0.24580 0.27760 -0.12150
H12 H 0.24820 0.19390 -0.09010
H13 H 0.28600 0.26030 -0.04360
Mo1D Mo 0.085927(11) 0.140960(11) 0.214820(11)
S1D S 0.10945(4) 0.26669(4) 0.19984(4)
C1D C 0.01168(14) 0.15603(14) 0.32080(14)
H1D H 0.02260 0.19110 0.36290
C2D C 0.03265(14) 0.07970(13) 0.31852(14)
C3D C 0.00061(13) 0.04831(13) 0.25317(13)
C4D C -0.04230(15) 0.10580(14) 0.21711(13)
C5D C -0.03597(15) 0.17166(15) 0.25983(14)
C6D C 0.07563(17) 0.03913(16) 0.37719(16)
H2D H 0.10230 -0.00300 0.35450
H3D H 0.04120 0.02040 0.41540
H4D H 0.11170 0.07320 0.40030
C7D C 0.00304(15) -0.03176(15) 0.22991(16)
H5D H -0.04120 -0.05760 0.24900
H6D H 0.04810 -0.05530 0.25020
H7D H 0.00390 -0.03480 0.17530
C8D C -0.09254(18) 0.09347(16) 0.15153(15)
H8D H -0.06690 0.06250 0.11450
H9D H -0.10550 0.14170 0.12920
H10D H -0.13820 0.06820 0.16810
C9D C -0.07630(18) 0.24424(20) 0.24680(17)
H11D H -0.12150 0.24580 0.27760
H12D H -0.09010 0.24820 0.19390
H13D H -0.04360 0.28600 0.26030
Mo1H Mo 0.214820(11) 0.085927(11) 0.140960(11)
S1H S 0.19984(4) 0.10945(4) 0.26669(4)
C1H C 0.32080(14) 0.01168(14) 0.15603(14)
H1H H 0.36290 0.02260 0.19110
C2H C 0.31852(14) 0.03265(13) 0.07970(14)
C3H C 0.25317(13) 0.00061(13) 0.04831(13)
C4H C 0.21711(15) -0.04230(14) 0.10580(13)
C5H C 0.25983(15) -0.03597(15) 0.17166(14)
C6H C 0.37719(17) 0.07563(16) 0.03913(16)
H2H H 0.35450 0.10230 -0.00300
H3H H 0.41540 0.04120 0.02040
H4H H 0.40030 0.11170 0.07320
C7H C 0.22991(15) 0.00304(15) -0.03176(16)
H5H H 0.24900 -0.04120 -0.05760
H6H H 0.25020 0.04810 -0.05530
H7H H 0.17530 0.00390 -0.03480
C8H C 0.15153(18) -0.09254(16) 0.09347(15)
H8H H 0.11450 -0.06690 0.06250
H9H H 0.12920 -0.10550 0.14170
H10H H 0.16810 -0.13820 0.06820
C9H C 0.24680(18) -0.0763(2) 0.24424(17)
H11H H 0.27760 -0.12150 0.24580
H12H H 0.19390 -0.09010 0.24820
H13H H 0.26030 -0.04360 0.28600
#END

data_CSD_CIF_HOMJOJ
_audit_creation_date 2009-07-03
_audit_creation_method CSD-ConQuest-V1
_database_code_CSD HOMJOJ
_database_code_depnum_ccdc_archive 'CCDC 716389'
_chemical_formula_sum 'C22 H48 N1 Si3 V1'
_chemical_formula_moiety
;
C22 H48 N1 Si3 V1
;
_journal_coden_Cambridge 579
_journal_volume 27
_journal_year 2008
_journal_page_first 6400
_journal_name_full 'Organometallics '
loop_
_publ_author_name
"Wenjuan Zhang"
"K.Nomura"
_chemical_name_systematic
;
(Adamantan-1-ylimino)-tris((trimethylsilyl)methyl)-vanadium
;
_cell_volume   5644.696
_exptl_crystal_colour 'green'
_exptl_crystal_density_diffrn 1.087
_exptl_crystal_description 'block'
_exptl_crystal_preparation 'n-hexane/toluene'
_diffrn_ambient_temperature 193
#These two values have been output from a single CSD field.
_refine_ls_R_factor_gt 0.0268
_refine_ls_wR_factor_gt 0.0268
_symmetry_cell_setting cubic
_symmetry_space_group_name_H-M 'P a -3'
_symmetry_Int_Tables_number 205
loop_
_symmetry_equiv_pos_site_id
_symmetry_equiv_pos_as_xyz
1 x,y,z
2 y,z,x
3 z,x,y
4 1/2+y,1/2-z,-x
5 1/2+z,1/2-x,-y
6 -z,1/2+x,1/2-y
7 -x,1/2+y,1/2-z
8 -y,1/2+z,1/2-x
9 1/2+x,1/2-y,-z
10 1/2-x,-y,1/2+z
11 1/2-y,-z,1/2+x
12 1/2-z,-x,1/2+y
13 -x,-y,-z
14 -y,-z,-x
15 -z,-x,-y
16 -1/2-y,-1/2+z,x
17 -1/2-z,-1/2+x,y
18 z,-1/2-x,-1/2+y
19 x,-1/2-y,-1/2+z
20 y,-1/2-z,-1/2+x
21 -1/2-x,-1/2+y,z
22 -1/2+x,y,-1/2-z
23 -1/2+y,z,-1/2-x
24 -1/2+z,x,-1/2-y
_cell_length_a 17.8052(4)
_cell_length_b 17.8052(4)
_cell_length_c 17.8052(4)
_cell_angle_alpha 90
_cell_angle_beta 90
_cell_angle_gamma 90
_cell_formula_units_Z 8
loop_
_atom_type_symbol
_atom_type_radius_bond
C 0.68
H 0.23
N 0.68
Si 1.20
V 1.33
loop_
_atom_site_label
_atom_site_type_symbol
_atom_site_fract_x
_atom_site_fract_y
_atom_site_fract_z
V1 V 0.39506(2) 0.39506(2) 0.39506(2)
Si1 Si 0.26002(3) 0.49482(3) 0.48870(3)
N1 N 0.34215(8) 0.34215(8) 0.34215(8)
C1 C 0.33314(10) 0.41961(10) 0.48736(10)
C2 C 0.20588(12) 0.49076(12) 0.57854(12)
C3 C 0.30531(11) 0.58939(10) 0.48322(11)
C4 C 0.19318(11) 0.48366(11) 0.40881(12)
C5 C 0.29527(9) 0.29527(9) 0.29527(9)
C6 C 0.23239(9) 0.25966(10) 0.34286(9)
C7 C 0.18293(10) 0.20992(11) 0.29286(10)
C8 C 0.23097(11) 0.14787(10) 0.25751(11)
H1 H 0.30860 0.37450 0.50310
H2 H 0.37460 0.43450 0.52310
H3 H 0.17900 0.44470 0.58120
H4 H 0.23990 0.49390 0.61950
H5 H 0.17150 0.53150 0.58080
H6 H 0.26800 0.62730 0.48760
H7 H 0.34060 0.59450 0.52300
H8 H 0.33040 0.59450 0.43640
H9 H 0.16840 0.43660 0.41270
H10 H 0.15710 0.52290 0.41000
H11 H 0.22020 0.48580 0.36290
H12 H 0.20490 0.30280 0.36790
H13 H 0.25590 0.23080 0.38490
H14 H 0.14240 0.18830 0.32340
H15 H 0.19920 0.11220 0.22800
H16 H 0.25020 0.11820 0.30100
Si1A Si 0.49482(3) 0.48870(3) 0.26002(3)
Si1B Si 0.48870(3) 0.26002(3) 0.49482(3)
C1A C 0.41961(10) 0.48736(10) 0.33314(10)
C1B C 0.48736(10) 0.33314(10) 0.41961(10)
C2A C 0.49076(12) 0.57854(12) 0.20588(12)
C2B C 0.57854(12) 0.20588(12) 0.49076(12)
C3A C 0.58939(11) 0.48322(10) 0.30531(11)
C3B C 0.48322(11) 0.30531(10) 0.58939(11)
C4A C 0.48366(11) 0.40881(11) 0.19318(12)
C4B C 0.40881(11) 0.19318(11) 0.48366(12)
C6A C 0.25966(9) 0.34286(10) 0.23239(9)
C6B C 0.34286(9) 0.23239(10) 0.25966(9)
C7A C 0.20992(10) 0.29286(11) 0.18293(10)
C7B C 0.29286(10) 0.18293(11) 0.20992(10)
C8A C 0.14787(11) 0.25751(10) 0.23097(11)
C8B C 0.25751(11) 0.23097(10) 0.14787(11)
H1A H 0.37450 0.50310 0.30860
H1B H 0.50310 0.30860 0.37450
H2A H 0.43450 0.52310 0.37460
H2B H 0.52310 0.37460 0.43450
H3A H 0.44470 0.58120 0.17900
H3B H 0.58120 0.17900 0.44470
H4A H 0.49390 0.61950 0.23990
H4B H 0.61950 0.23990 0.49390
H5A H 0.53150 0.58080 0.17150
H5B H 0.58080 0.17150 0.53150
H6A H 0.62730 0.48760 0.26800
H6B H 0.48760 0.26800 0.62730
H7A H 0.59450 0.52300 0.34060
H7B H 0.52300 0.34060 0.59450
H8A H 0.59450 0.43640 0.33040
H8B H 0.43640 0.33040 0.59450
H9A H 0.43660 0.41270 0.16840
H9B H 0.41270 0.16840 0.43660
H10A H 0.52290 0.41000 0.15710
H10B H 0.41000 0.15710 0.52290
H11A H 0.48580 0.36290 0.22020
H11B H 0.36290 0.22020 0.48580
H12A H 0.30280 0.36790 0.20490
H12B H 0.36790 0.20490 0.30280
H13A H 0.23080 0.38490 0.25590
H13B H 0.38490 0.25590 0.23080
H14A H 0.18830 0.32340 0.14240
H14B H 0.32340 0.14240 0.18830
H15A H 0.11220 0.22800 0.19920
H15B H 0.22800 0.19920 0.11220
H16A H 0.11820 0.30100 0.25020
H16B H 0.30100 0.25020 0.11820
#END

data_CSD_CIF_IBOJIW
_audit_creation_date 2021-09-27
_audit_creation_method CSD-ConQuest-V1
_database_code_CSD IBOJIW
_database_code_depnum_ccdc_archive 'CCDC 2094496'
_chemical_formula_sum 'C57 H45 Au1 Cl1 O6 P3'
_chemical_formula_moiety
;
C57 H45 Au1 O6 P3 1+,Cl1 1-
;
_journal_coden_Cambridge 214
_journal_volume 152
_journal_year 2021
_journal_page_first 1201
_journal_name_full 'Monatsh.Chem. '
loop_
_publ_author_name
"Petra Grundlinger"
"C.C.Mardare"
"T.Wagner"
"U.Monkowius"
_chemical_name_systematic
;
tris(2-(diphenylphosphanyl)benzoic acid)-gold chloride
;
_cell_volume   9883.146
_exptl_crystal_colour 'colorless'
_exptl_crystal_density_diffrn 1.547
_exptl_crystal_description 'plate'
_exptl_crystal_preparation 'Re-crystallisation from solvent'
_diffrn_ambient_temperature 296
#These two values have been output from a single CSD field.
_refine_ls_R_factor_gt 0.0477
_refine_ls_wR_factor_gt 0.0477
_symmetry_cell_setting cubic
_symmetry_space_group_name_H-M 'P a -3'
_symmetry_Int_Tables_number 205
loop_
_symmetry_equiv_pos_site_id
_symmetry_equiv_pos_as_xyz
1 x,y,z
2 z,x,y
3 y,z,x
4 1/2-y,-z,1/2+x
5 1/2+z,1/2-x,-y
6 -y,1/2+z,1/2-x
7 1/2-z,-x,1/2+y
8 -z,1/2+x,1/2-y
9 1/2+y,1/2-z,-x
10 1/2+x,1/2-y,-z
11 -x,1/2+y,1/2-z
12 1/2-x,-y,1/2+z
13 -x,-y,-z
14 -z,-x,-y
15 -y,-z,-x
16 -1/2+y,z,-1/2-x
17 -1/2-z,-1/2+x,y
18 y,-1/2-z,-1/2+x
19 -1/2+z,x,-1/2-y
20 z,-1/2-x,-1/2+y
21 -1/2-y,-1/2+z,x
22 -1/2-x,-1/2+y,z
23 x,-1/2-y,-1/2+z
24 -1/2+x,y,-1/2-z
_cell_length_a 21.4601(4)
_cell_length_b 21.4601(4)
_cell_length_c 21.4601(4)
_cell_angle_alpha 90
_cell_angle_beta 90
_cell_angle_gamma 90
_cell_formula_units_Z 8
loop_
_atom_type_symbol
_atom_type_radius_bond
C 0.68
H 0.23
Au 1.36
Cl 0.99
O 0.68
P 1.05
loop_
_atom_site_label
_atom_site_type_symbol
_atom_site_fract_x
_atom_site_fract_y
_atom_site_fract_z
Au1 Au 0.84472(2) 0.34472(2) 0.15528(2)
P1 P 0.82741(11) 0.43685(11) 0.21725(11)
O1 O 0.7679(3) 0.3441(3) 0.2795(3)
C1 C 0.8602(6) 0.4870(7) 0.3987(5)
H1 H 0.84085 0.51149 0.42872
C2 C 0.6697(5) 0.5448(5) 0.2147(5)
H2 H 0.66017 0.58549 0.20328
C3 C 0.7296(4) 0.5239(4) 0.2094(4)
H3 H 0.75986 0.55063 0.19358
C4 C 0.6235(5) 0.5066(5) 0.2365(5)
H4 H 0.58287 0.52122 0.24017
C5 C 0.9173(6) 0.4208(5) 0.3066(5)
H5 H 0.93844 0.39855 0.27599
C6 C 0.7162(5) 0.3606(4) 0.2700(4)
C7 C 0.8312(5) 0.4758(6) 0.3417(5)
H6 H 0.79087 0.49049 0.33560
C8 C 0.8597(4) 0.4442(4) 0.2947(4)
C9 C 0.6381(4) 0.4463(5) 0.2528(5)
H7 H 0.60667 0.41990 0.26674
C10 C 0.8898(5) 0.5532(5) 0.2074(5)
H8 H 0.88774 0.55580 0.25060
C11 C 0.8707(5) 0.4998(5) 0.1138(5)
H9 H 0.85509 0.46568 0.09215
C12 C 0.6993(4) 0.4241(4) 0.2489(4)
C13 C 0.7468(4) 0.4640(4) 0.2269(4)
C14 C 0.9157(6) 0.4624(5) 0.4096(5)
H10 H 0.93437 0.46758 0.44835
C15 C 0.9213(6) 0.5982(6) 0.1125(7)
H11 H 0.93863 0.63131 0.09061
C16 C 0.8648(4) 0.5020(4) 0.1775(4)
C17 C 0.9450(7) 0.4300(6) 0.3649(6)
H12 H 0.98422 0.41345 0.37281
O2 O 0.6655(3) 0.3261(3) 0.2786(4)
H13 H 0.67563 0.29112 0.29012
C18 C 0.9177(6) 0.6004(5) 0.1744(7)
H14 H 0.93424 0.63441 0.19556
C19 C 0.8994(6) 0.5473(6) 0.0812(6)
H15 H 0.90388 0.54465 0.03816
Cl1 Cl 0.68707(18) 0.18707(18) 0.31293(18)
P1G P 0.78275(11) 0.32741(11) 0.06315(11)
O1G O 0.7205(3) 0.2679(3) 0.1559(3)
C1G C 0.6013(6) 0.3602(7) 0.0130(5)
H1G H 0.57128 0.34085 -0.01149
C2G C 0.7853(5) 0.1697(5) -0.0448(5)
H2G H 0.79672 0.16017 -0.08549
C3G C 0.7906(4) 0.2296(4) -0.0239(4)
H3G H 0.80642 0.25986 -0.05063
C4G C 0.7635(5) 0.1235(5) -0.0066(5)
H4G H 0.75983 0.08287 -0.02122
C5G C 0.6934(6) 0.4173(5) 0.0792(5)
H5G H 0.72401 0.43844 0.10145
C6G C 0.7300(5) 0.2162(4) 0.1394(4)
C7G C 0.6583(5) 0.3312(6) 0.0242(5)
H6G H 0.66440 0.29087 0.00951
C8G C 0.7053(4) 0.3597(4) 0.0558(4)
C9G C 0.7472(4) 0.1381(5) 0.0537(5)
H7G H 0.73326 0.10667 0.08010
C10G C 0.7926(5) 0.3898(5) -0.0532(5)
H8G H 0.74940 0.38774 -0.05580
C11G C 0.8862(5) 0.3707(5) 0.0002(5)
H9G H 0.90785 0.35509 0.03432
C12G C 0.7511(4) 0.1993(4) 0.0759(4)
C13G C 0.7731(4) 0.2468(4) 0.0360(4)
C14G C 0.5904(6) 0.4157(5) 0.0376(5)
H10G H 0.55165 0.43437 0.03242
C15G C 0.8875(6) 0.4213(6) -0.0982(7)
H11G H 0.90939 0.43863 -0.13131
C16G C 0.8225(4) 0.3648(4) -0.0020(4)
C17G C 0.6351(7) 0.4450(6) 0.0700(6)
H12G H 0.62719 0.48422 0.08655
O2G O 0.7214(3) 0.1655(3) 0.1739(4)
H13G H 0.70988 0.17563 0.20888
C18G C 0.8256(6) 0.4177(5) -0.1004(7)
H14G H 0.80444 0.43424 -0.13441
C19G C 0.9188(6) 0.3994(6) -0.0473(6)
H15G H 0.96184 0.40388 -0.04465
P1H P 0.93685(11) 0.28275(11) 0.17259(11)
O1H O 0.8441(3) 0.2205(3) 0.2321(3)
C1H C 0.9870(6) 0.1013(7) 0.1398(5)
H1H H 1.01149 0.07128 0.15915
C2H C 1.0448(5) 0.2853(5) 0.3303(5)
H2H H 1.08549 0.29672 0.33983
C3H C 1.0239(4) 0.2906(4) 0.2704(4)
H3H H 1.05063 0.30642 0.24014
C4H C 1.0066(5) 0.2635(5) 0.3765(5)
H4H H 1.02122 0.25983 0.41713
C5H C 0.9208(6) 0.1934(5) 0.0827(5)
H5H H 0.89855 0.22401 0.06156
C6H C 0.8606(5) 0.2300(4) 0.2838(4)
C7H C 0.9758(5) 0.1583(6) 0.1688(5)
H6H H 0.99049 0.16440 0.20913
C8H C 0.9442(4) 0.2053(4) 0.1403(4)
C9H C 0.9463(4) 0.2472(5) 0.3619(5)
H7H H 0.91990 0.23326 0.39333
C10H C 1.0532(5) 0.2926(5) 0.1102(5)
H8H H 1.05580 0.24940 0.11226
C11H C 0.9998(5) 0.3862(5) 0.1293(5)
H9H H 0.96568 0.40785 0.14491
C12H C 0.9241(4) 0.2511(4) 0.3007(4)
C13H C 0.9640(4) 0.2731(4) 0.2532(4)
C14H C 0.9624(6) 0.0904(5) 0.0843(5)
H10H H 0.96758 0.05165 0.06563
C15H C 1.0982(6) 0.3875(6) 0.0787(7)
H11H H 1.13131 0.40939 0.06137
C16H C 1.0020(4) 0.3225(4) 0.1352(4)
C17H C 0.9300(7) 0.1351(6) 0.0550(6)
H12H H 0.91345 0.12719 0.01578
O2H O 0.8261(3) 0.2214(3) 0.3345(4)
H13H H 0.79112 0.20988 0.32437
C18H C 1.1004(6) 0.3256(5) 0.0823(7)
H14H H 1.13441 0.30444 0.06576
C19H C 1.0473(6) 0.4188(6) 0.1006(6)
H15H H 1.04465 0.46185 0.09612
#END

data_CSD_CIF_IDUSAB
_audit_creation_date 2002-05-01
_audit_creation_method CSD-ConQuest-V1
_database_code_CSD IDUSAB
_database_code_depnum_ccdc_archive 'CCDC 173106'
_chemical_formula_sum 'C24 H54 B1 Cl1 N2 P2'
_chemical_formula_moiety
;
C24 H54 B1 N2 P2 1+,Cl1 1-
;
_journal_coden_Cambridge 179
_journal_volume 41
_journal_year 2002
_journal_page_first 498
_journal_name_full 'Angew.Chem.,Int.Ed. '
loop_
_publ_author_name
"S.Courtenay"
"J.Y.Mutus"
"R.W.Schurko"
"D.W.Stephan"
_chemical_name_systematic
;
bis((tris(t-Butyl)phosphine)iminato)borylium chloride
;
_cell_volume   3117.447
_exptl_crystal_density_diffrn 1.02
_exptl_special_details
;
isomorphous with the neutral borane analogue

;
_exptl_crystal_preparation 'toluene'
_diffrn_ambient_temperature 293
#These two values have been output from a single CSD field.
_refine_ls_R_factor_gt 0.0424
_refine_ls_wR_factor_gt 0.0424
_symmetry_cell_setting cubic
_symmetry_space_group_name_H-M 'P a -3'
_symmetry_Int_Tables_number 205
loop_
_symmetry_equiv_pos_site_id
_symmetry_equiv_pos_as_xyz
1 x,y,z
2 z,x,y
3 y,z,x
4 1/2+x,y,1/2-z
5 x,1/2-y,1/2+z
6 1/2-x,1/2+y,z
7 1/2-z,1/2+x,y
8 1/2+z,x,1/2-y
9 z,1/2-x,1/2+y
10 y,1/2-z,1/2+x
11 1/2-y,1/2+z,x
12 1/2+y,z,1/2-x
13 -x,-y,-z
14 -z,-x,-y
15 -y,-z,-x
16 -1/2-x,-y,-1/2+z
17 -x,-1/2+y,-1/2-z
18 -1/2+x,-1/2-y,-z
19 -1/2+z,-1/2-x,-y
20 -1/2-z,-x,-1/2+y
21 -z,-1/2+x,-1/2-y
22 -y,-1/2+z,-1/2-x
23 -1/2+y,-1/2-z,-x
24 -1/2-y,-z,-1/2+x
_cell_length_a 14.6083(10)
_cell_length_b 14.6083(10)
_cell_length_c 14.6083(10)
_cell_angle_alpha 90
_cell_angle_beta 90
_cell_angle_gamma 90
_cell_formula_units_Z 4
loop_
_atom_type_symbol
_atom_type_radius_bond
C 0.68
H 0.23
B 0.83
Cl 0.99
N 0.68
P 1.05
loop_
_atom_site_label
_atom_site_type_symbol
_atom_site_fract_x
_atom_site_fract_y
_atom_site_fract_z
P1 P 0.88977(5) 0.38977(5) 0.11023(5)
Cl1 Cl 1.00000 0.50000 0.50000
C1 C 0.9036(2) 0.4301(2) 0.2307(2)
C2 C 0.8312(3) 0.3929(2) 0.2969(2)
H1 H 0.84260 0.41640 0.35720
H2 H 0.83410 0.32730 0.29800
H3 H 0.77150 0.41190 0.27690
B1 B 1.00000 0.50000 0.00000
C3 C 0.9013(3) 0.5353(3) 0.2352(3)
H4 H 0.90880 0.55470 0.29750
H5 H 0.84370 0.55690 0.21230
H6 H 0.95010 0.55980 0.19850
C4 C 0.9985(3) 0.3994(3) 0.2662(3)
H7 H 1.00650 0.42020 0.32800
H8 H 1.04550 0.42500 0.22820
H9 H 1.00230 0.33380 0.26460
N1 N 0.9503(2) 0.4503(2) 0.0497(2)
C1T C 0.7693(2) 0.4036(2) 0.0699(2)
C2T C 0.7031(3) 0.3312(2) 0.1071(2)
H1T H 0.64280 0.34260 0.08360
H2T H 0.70200 0.33410 0.17270
H3T H 0.72310 0.27150 0.08810
C3T C 0.7648(3) 0.4013(3) -0.0353(3)
H4T H 0.70250 0.40880 -0.05470
H5T H 0.78770 0.34370 -0.05690
H6T H 0.80150 0.45010 -0.05980
C4T C 0.7338(3) 0.4985(3) 0.1006(3)
H7T H 0.67200 0.50650 0.07980
H8T H 0.77180 0.54550 0.07500
H9T H 0.73540 0.50230 0.16620
C1V C 0.9301(2) 0.2693(2) 0.0964(2)
C2V C 0.8929(3) 0.2031(2) 0.1688(2)
H1V H 0.91640 0.14280 0.15740
H2V H 0.82730 0.20200 0.16590
H3V H 0.91190 0.22310 0.22850
C3V C 1.0353(3) 0.2648(3) 0.0987(3)
H4V H 1.05470 0.20250 0.09120
H5V H 1.05690 0.28770 0.15630
H6V H 1.05980 0.30150 0.04990
C4V C 0.8994(3) 0.2338(3) 0.0015(3)
H7V H 0.92020 0.17200 -0.00650
H8V H 0.92500 0.27180 -0.04550
H9V H 0.83380 0.23540 -0.00230
N1H N 1.0497(2) 0.5497(2) -0.0497(2)
P1H P 1.11023(5) 0.61023(5) -0.11023(5)
C1H C 1.2307(2) 0.5964(2) -0.0699(2)
C2H C 1.2969(3) 0.6688(2) -0.1071(2)
H1H H 1.35720 0.65740 -0.08360
H2H H 1.29800 0.66590 -0.17270
H3H H 1.27690 0.72850 -0.08810
C3H C 1.2352(3) 0.5987(3) 0.0353(3)
H4H H 1.29750 0.59120 0.05470
H5H H 1.21230 0.65630 0.05690
H6H H 1.19850 0.54990 0.05980
C4H C 1.2662(3) 0.5015(3) -0.1006(3)
H7H H 1.32800 0.49350 -0.07980
H8H H 1.22820 0.45450 -0.07500
H9H H 1.26460 0.49770 -0.16620
C1J C 1.0699(2) 0.7307(2) -0.0964(2)
C2J C 1.1071(3) 0.7969(2) -0.1688(2)
H1J H 1.08360 0.85720 -0.15740
H2J H 1.17270 0.79800 -0.16590
H3J H 1.08810 0.77690 -0.22850
C3J C 0.9647(3) 0.7352(3) -0.0987(3)
H4J H 0.94530 0.79750 -0.09120
H5J H 0.94310 0.71230 -0.15630
H6J H 0.94020 0.69850 -0.04990
C4J C 1.1006(3) 0.7662(3) -0.0015(3)
H7J H 1.07980 0.82800 0.00650
H8J H 1.07500 0.72820 0.04550
H9J H 1.16620 0.76460 0.00230
C1L C 1.0964(2) 0.5699(2) -0.2307(2)
C2L C 1.1688(3) 0.6071(2) -0.2969(2)
H1L H 1.15740 0.58360 -0.35720
H2L H 1.16590 0.67270 -0.29800
H3L H 1.22850 0.58810 -0.27690
C3L C 1.0987(3) 0.4647(3) -0.2352(3)
H4L H 1.09120 0.44530 -0.29750
H5L H 1.15630 0.44310 -0.21230
H6L H 1.04990 0.44020 -0.19850
C4L C 1.0015(3) 0.6006(3) -0.2662(3)
H7L H 0.99350 0.57980 -0.32800
H8L H 0.95450 0.57500 -0.22820
H9L H 0.99770 0.66620 -0.26460
#END

data_CSD_CIF_IREDEQ
_audit_creation_date 2016-07-11
_audit_creation_method CSD-ConQuest-V1
_database_code_CSD IREDEQ
_database_code_depnum_ccdc_archive 'CCDC 804877; not CCDC 804878 as published'
_chemical_formula_sum 'C54 H48 B2 F8 Fe1 N20'
_chemical_formula_moiety
;
C54 H48 Fe1 N20 2+,2(B1 F4 1-)
;
_journal_coden_Cambridge 1290
_journal_year 2016
_journal_page_first 2581
_journal_name_full 'Eur.J.Inorg.Chem. '
loop_
_publ_author_name
"D.Schweinfurth"
"S.Demeshko"
"M.G.Sommer"
"S.Dechert"
"F.Meyer"
"B.Sarkar"
_chemical_name_systematic
;
bis(N,N,N-tris((1-phenyl-1H-1,2,3-triazol-4-yl)methyl)amine)-iron(ii) 
bis(tetrafluoroborate)
;
_cell_volume   5373.076
_exptl_crystal_colour 'colorless'
_exptl_crystal_density_diffrn 1.492
_exptl_crystal_description 'block'
_diffrn_ambient_temperature 133
#These two values have been output from a single CSD field.
_refine_ls_R_factor_gt 0.0331
_refine_ls_wR_factor_gt 0.0331
_symmetry_cell_setting cubic
_symmetry_space_group_name_H-M 'P a -3'
_symmetry_Int_Tables_number 205
loop_
_symmetry_equiv_pos_site_id
_symmetry_equiv_pos_as_xyz
1 x,y,z
2 1/2-x,-y,1/2+z
3 -x,1/2+y,1/2-z
4 1/2+x,1/2-y,-z
5 z,x,y
6 1/2+z,1/2-x,-y
7 1/2-z,-x,1/2+y
8 -z,1/2+x,1/2-y
9 y,z,x
10 -y,1/2+z,1/2-x
11 1/2+y,1/2-z,-x
12 1/2-y,-z,1/2+x
13 -x,-y,-z
14 -1/2+x,y,-1/2-z
15 x,-1/2-y,-1/2+z
16 -1/2-x,-1/2+y,z
17 -z,-x,-y
18 -1/2-z,-1/2+x,y
19 -1/2+z,x,-1/2-y
20 z,-1/2-x,-1/2+y
21 -y,-z,-x
22 y,-1/2-z,-1/2+x
23 -1/2-y,-1/2+z,x
24 -1/2+y,z,-1/2-x
_cell_length_a 17.5149(4)
_cell_length_b 17.5149(4)
_cell_length_c 17.5149(4)
_cell_angle_alpha 90
_cell_angle_beta 90
_cell_angle_gamma 90
_cell_formula_units_Z 4
loop_
_atom_type_symbol
_atom_type_radius_bond
C 0.68
H 0.23
B 0.83
F 0.64
Fe 1.52
N 0.68
loop_
_atom_site_label
_atom_site_type_symbol
_atom_site_fract_x
_atom_site_fract_y
_atom_site_fract_z
Fe1 Fe 0.50000 0.00000 0.00000
N1 N 0.59390(8) -0.09390(8) 0.09390(8)
N2 N 0.47986(7) 0.00534(7) 0.12706(7)
N3 N 0.41988(7) 0.04046(7) 0.15533(7)
N4 N 0.43130(7) 0.04509(7) 0.23102(7)
C1 C 0.60341(9) -0.05099(9) 0.16480(9)
H1 H 0.64330 -0.01310 0.15870
H2 H 0.61800 -0.08520 0.20580
C2 C 0.52945(9) -0.01270(9) 0.18379(9)
C3 C 0.49858(9) 0.01231(9) 0.25118(10)
H3 H 0.51920 0.00780 0.29990
C4 C 0.37491(9) 0.08074(9) 0.27902(9)
C5 C 0.30014(10) 0.08493(9) 0.25423(9)
H4 H 0.28600 0.06450 0.20730
C6 C 0.24647(10) 0.12029(10) 0.30083(10)
H5 H 0.19600 0.12400 0.28470
C7 C 0.26743(11) 0.14996(11) 0.37081(10)
H6 H 0.23120 0.17370 0.40150
C8 C 0.34176(11) 0.14436(11) 0.39503(10)
H7 H 0.35550 0.16380 0.44250
C9 C 0.39651(10) 0.10992(11) 0.34923(10)
H8 H 0.44690 0.10650 0.36550
B1 B 0.11324(11) 0.11324(11) 0.11324(11)
F1 F 0.06699(5) 0.06699(5) 0.06699(5)
F2 F 0.06755(7) 0.16646(7) 0.14949(7)
N2E N 0.62706(7) 0.02014(7) -0.00534(7)
N3E N 0.65533(7) 0.08012(7) -0.04046(7)
N4E N 0.73102(7) 0.06870(7) -0.04509(7)
C1E C 0.66480(9) -0.10341(9) 0.05099(9)
H1E H 0.65870 -0.14330 0.01310
H2E H 0.70580 -0.11800 0.08520
C2E C 0.68379(9) -0.02945(9) 0.01270(9)
C3E C 0.75118(9) 0.00142(9) -0.01231(10)
H3E H 0.79990 -0.01920 -0.00780
C4E C 0.77902(9) 0.12509(9) -0.08074(9)
C5E C 0.75423(10) 0.19986(9) -0.08493(9)
H4E H 0.70730 0.21400 -0.06450
C6E C 0.80083(10) 0.25353(10) -0.12029(10)
H5E H 0.78470 0.30400 -0.12400
C7E C 0.87081(11) 0.23257(11) -0.14996(10)
H6E H 0.90150 0.26880 -0.17370
C8E C 0.89503(11) 0.15824(11) -0.14436(10)
H7E H 0.94250 0.14450 -0.16380
C9E C 0.84923(10) 0.10349(11) -0.10992(10)
H8E H 0.86550 0.05310 -0.10650
N2K N 0.49466(7) -0.12706(7) -0.02014(7)
N3K N 0.45954(7) -0.15533(7) -0.08012(7)
N4K N 0.45491(7) -0.23102(7) -0.06870(7)
C1K C 0.55099(9) -0.16480(9) 0.10341(9)
H1K H 0.51310 -0.15870 0.14330
H2K H 0.58520 -0.20580 0.11800
C2K C 0.51270(9) -0.18379(9) 0.02945(9)
C3K C 0.48769(9) -0.25118(9) -0.00142(10)
H3K H 0.49220 -0.29990 0.01920
C4K C 0.41926(9) -0.27902(9) -0.12509(9)
C5K C 0.41507(10) -0.25423(9) -0.19986(9)
H4K H 0.43550 -0.20730 -0.21400
C6K C 0.37971(10) -0.30083(10) -0.25353(10)
H5K H 0.37600 -0.28470 -0.30400
C7K C 0.35004(11) -0.37081(11) -0.23257(10)
H6K H 0.32630 -0.40150 -0.26880
C8K C 0.35564(11) -0.39503(11) -0.15824(10)
H7K H 0.33620 -0.44250 -0.14450
C9K C 0.39008(10) -0.34923(11) -0.10349(10)
H8K H 0.39350 -0.36550 -0.05310
N1L N 0.40610(8) 0.09390(8) -0.09390(8)
N2L N 0.52014(7) -0.00534(7) -0.12706(7)
N3L N 0.58012(7) -0.04046(7) -0.15533(7)
N4L N 0.56870(7) -0.04509(7) -0.23102(7)
C1L C 0.39659(9) 0.05099(9) -0.16480(9)
H1L H 0.35670 0.01310 -0.15870
H2L H 0.38200 0.08520 -0.20580
C2L C 0.47055(9) 0.01270(9) -0.18379(9)
C3L C 0.50142(9) -0.01231(9) -0.25118(10)
H3L H 0.48080 -0.00780 -0.29990
C4L C 0.62509(9) -0.08074(9) -0.27902(9)
C5L C 0.69986(10) -0.08493(9) -0.25423(9)
H4L H 0.71400 -0.06450 -0.20730
C6L C 0.75353(10) -0.12029(10) -0.30083(10)
H5L H 0.80400 -0.12400 -0.28470
C7L C 0.73257(11) -0.14996(11) -0.37081(10)
H6L H 0.76880 -0.17370 -0.40150
C8L C 0.65824(11) -0.14436(11) -0.39503(10)
H7L H 0.64450 -0.16380 -0.44250
C9L C 0.60349(10) -0.10992(11) -0.34923(10)
H8L H 0.55310 -0.10650 -0.36550
N2Q N 0.37294(7) -0.02014(7) 0.00534(7)
N3Q N 0.34467(7) -0.08012(7) 0.04046(7)
N4Q N 0.26898(7) -0.06870(7) 0.04509(7)
C1Q C 0.33520(9) 0.10341(9) -0.05099(9)
H1Q H 0.34130 0.14330 -0.01310
H2Q H 0.29420 0.11800 -0.08520
C2Q C 0.31621(9) 0.02945(9) -0.01270(9)
C3Q C 0.24882(9) -0.00142(9) 0.01231(10)
H3Q H 0.20010 0.01920 0.00780
C4Q C 0.22098(9) -0.12509(9) 0.08074(9)
C5Q C 0.24577(10) -0.19986(9) 0.08493(9)
H4Q H 0.29270 -0.21400 0.06450
C6Q C 0.19917(10) -0.25353(10) 0.12029(10)
H5Q H 0.21530 -0.30400 0.12400
C7Q C 0.12919(11) -0.23257(11) 0.14996(10)
H6Q H 0.09850 -0.26880 0.17370
C8Q C 0.10497(11) -0.15824(11) 0.14436(10)
H7Q H 0.05750 -0.14450 0.16380
C9Q C 0.15077(10) -0.10349(11) 0.10992(10)
H8Q H 0.13450 -0.05310 0.10650
N2W N 0.50534(7) 0.12706(7) 0.02014(7)
N3W N 0.54046(7) 0.15533(7) 0.08012(7)
N4W N 0.54509(7) 0.23102(7) 0.06870(7)
C1W C 0.44901(9) 0.16480(9) -0.10341(9)
H1W H 0.48690 0.15870 -0.14330
H2W H 0.41480 0.20580 -0.11800
C2W C 0.48730(9) 0.18379(9) -0.02945(9)
C3W C 0.51231(9) 0.25118(9) 0.00142(10)
H3W H 0.50780 0.29990 -0.01920
C4W C 0.58074(9) 0.27902(9) 0.12509(9)
C5W C 0.58493(10) 0.25423(9) 0.19986(9)
H4W H 0.56450 0.20730 0.21400
C6W C 0.62029(10) 0.30083(10) 0.25353(10)
H5W H 0.62400 0.28470 0.30400
C7W C 0.64996(11) 0.37081(11) 0.23257(10)
H6W H 0.67370 0.40150 0.26880
C8W C 0.64436(11) 0.39503(11) 0.15824(10)
H7W H 0.66380 0.44250 0.14450
C9W C 0.60992(10) 0.34923(11) 0.10349(10)
H8W H 0.60650 0.36550 0.05310
F2D F 0.14949(7) 0.06755(7) 0.16646(7)
F2H F 0.16646(7) 0.14949(7) 0.06755(7)
#END

data_CSD_CIF_JACPEI
_audit_creation_date 1989-07-11
_audit_creation_method CSD-ConQuest-V1
_database_code_CSD JACPEI
_database_code_depnum_ccdc_archive 'CCDC 1181577'
_chemical_formula_sum 'C36 H78 O3 P3 Y1'
_chemical_formula_moiety
;
C36 H78 O3 P3 Y1
;
_journal_coden_Cambridge 182
_journal_year 1988
_journal_page_first 1557
_journal_name_full 'Chem.Commun. '
loop_
_publ_author_name
"P.B.Hitchcock"
"M.F.Lappert"
"I.A.MacKinnon"
_chemical_name_systematic
;
tris(1,1-Di-t-butyl-2-dimethylphosphino-ethoxy-O,P)-yttrium
;
_chemical_name_common
;
Teaching Subset: Fundamental Chemistry
;
_chemical_melting_point 533.15
_cell_volume   8641.628
_exptl_crystal_colour 'colorless'
_exptl_crystal_density_diffrn 1.14
_diffrn_ambient_temperature ?
_diffrn_special_details
;
The study was carried out at room temperature,in the range 283-303K

;
#These two values have been output from a single CSD field.
_refine_ls_R_factor_gt 0.04
_refine_ls_wR_factor_gt 0.04
_symmetry_cell_setting cubic
_symmetry_space_group_name_H-M 'P a 3'
_symmetry_Int_Tables_number 205
loop_
_symmetry_equiv_pos_site_id
_symmetry_equiv_pos_as_xyz
1 x,y,z
2 z,x,y
3 y,z,x
4 -x,1/2+y,1/2-z
5 -z,1/2+x,1/2-y
6 -y,1/2+z,1/2-x
7 1/2-x,-y,1/2+z
8 1/2-z,-x,1/2+y
9 1/2-y,-z,1/2+x
10 1/2+x,1/2-y,-z
11 1/2+z,1/2-x,-y
12 1/2+y,1/2-z,-x
13 -x,-y,-z
14 -z,-x,-y
15 -y,-z,-x
16 x,-1/2-y,-1/2+z
17 z,-1/2-x,-1/2+y
18 y,-1/2-z,-1/2+x
19 -1/2+x,y,-1/2-z
20 -1/2+z,x,-1/2-y
21 -1/2+y,z,-1/2-x
22 -1/2-x,-1/2+y,z
23 -1/2-z,-1/2+x,y
24 -1/2-y,-1/2+z,x
_cell_length_a 20.521(2)
_cell_length_b 20.521(2)
_cell_length_c 20.521(2)
_cell_angle_alpha 90
_cell_angle_beta 90
_cell_angle_gamma 90
_cell_formula_units_Z 8
loop_
_atom_type_symbol
_atom_type_radius_bond
C 0.68
H 0.23
O 0.68
P 1.05
Y 1.78
loop_
_atom_site_label
_atom_site_type_symbol
_atom_site_fract_x
_atom_site_fract_y
_atom_site_fract_z
Y1 Y 0.14189(3) 0.14189 0.14189
P1 P 0.2693(1) 0.2074(1) 0.1033(1)
O1 O 0.2018(2) 0.0910(2) 0.0771(2)
C1 C 0.2498(3) 0.0908(3) 0.0279(3)
C2 C 0.2976(3) 0.1494(3) 0.0413(3)
C3 C 0.2884(4) 0.2868(4) 0.0665(4)
C4 C 0.3349(4) 0.2051(4) 0.1635(4)
C5 C 0.2136(4) 0.1022(4) -0.0395(4)
C6 C 0.2909(3) 0.0249(3) 0.0358(3)
C7 C 0.1890(5) 0.1724(4) -0.0417(4)
C8 C 0.2555(5) 0.0928(4) -0.0996(4)
C9 C 0.1545(4) 0.0606(5) -0.0463(4)
C10 C 0.3528(4) 0.0206(4) -0.0074(4)
C11 C 0.2506(4) -0.0355(3) 0.0235(4)
C12 C 0.3156(4) 0.0216(4) 0.1059(4)
H1 H 0.30700 0.17600 -0.00400
H2 H 0.34400 0.13000 0.05500
H3 H 0.27400 0.32700 0.09600
H4 H 0.33900 0.29300 0.05600
H5 H 0.26400 0.29300 0.02000
H6 H 0.32100 0.23600 0.20500
H7 H 0.33900 0.15700 0.18400
H8 H 0.37800 0.22000 0.14600
H9 H 0.16200 0.18600 -0.08300
H10 H 0.15700 0.18400 0.00000
H11 H 0.22800 0.20700 -0.03600
H12 H 0.23200 0.10200 -0.14300
H13 H 0.29700 0.12700 -0.09600
H14 H 0.27700 0.04600 -0.09900
H15 H 0.12800 0.06800 -0.09000
H16 H 0.16700 0.01000 -0.04400
H17 H 0.12000 0.06800 -0.00700
H18 H 0.37800 -0.02300 0.00000
H19 H 0.34100 0.02500 -0.05600
H20 H 0.38400 0.06000 0.00600
H21 H 0.27700 -0.08000 0.02800
H22 H 0.20900 -0.03800 0.05400
H23 H 0.23200 -0.03600 -0.02600
H24 H 0.34200 -0.02200 0.11500
H25 H 0.34600 0.06200 0.11600
H26 H 0.27600 0.02200 0.13900
P1A P 0.1033(1) 0.2693(1) 0.2074(1)
P1B P 0.2074(1) 0.1033(1) 0.2693(1)
O1A O 0.0771(2) 0.2018(2) 0.0910(2)
O1B O 0.0910(2) 0.0771(2) 0.2018(2)
C2A C 0.0413(3) 0.2976(3) 0.1494(3)
C3A C 0.0665(4) 0.2884(4) 0.2868(4)
C4A C 0.1635(4) 0.3349(4) 0.2051(4)
C2B C 0.1494(3) 0.0413(3) 0.2976(3)
C3B C 0.2868(4) 0.0665(4) 0.2884(4)
C4B C 0.2051(4) 0.1635(4) 0.3349(4)
C1A C 0.0279(3) 0.2498(3) 0.0908(3)
C1B C 0.0908(3) 0.0279(3) 0.2498(3)
H1A H -0.00400 0.30700 0.17600
H2A H 0.05500 0.34400 0.13000
H3A H 0.09600 0.27400 0.32700
H4A H 0.05600 0.33900 0.29300
H5A H 0.02000 0.26400 0.29300
H6A H 0.20500 0.32100 0.23600
H7A H 0.18400 0.33900 0.15700
H8A H 0.14600 0.37800 0.22000
H1B H 0.17600 -0.00400 0.30700
H2B H 0.13000 0.05500 0.34400
H3B H 0.32700 0.09600 0.27400
H4B H 0.29300 0.05600 0.33900
H5B H 0.29300 0.02000 0.26400
H6B H 0.23600 0.20500 0.32100
H7B H 0.15700 0.18400 0.33900
H8B H 0.22000 0.14600 0.37800
C5A C -0.0395(4) 0.2136(4) 0.1022(4)
C6A C 0.0358(3) 0.2909(3) 0.0249(3)
C5B C 0.1022(4) -0.0395(4) 0.2136(4)
C6B C 0.0249(3) 0.0358(3) 0.2909(3)
C7A C -0.0417(5) 0.1890(4) 0.1724(4)
C8A C -0.0996(5) 0.2555(4) 0.0928(4)
C9A C -0.0463(4) 0.1545(5) 0.0606(4)
C10A C -0.0074(4) 0.3528(4) 0.0206(4)
C11A C 0.0235(4) 0.2506(3) -0.0355(4)
C12A C 0.1059(4) 0.3156(4) 0.0216(4)
C7B C 0.1724(5) -0.0417(4) 0.1890(4)
C8B C 0.0928(5) -0.0996(4) 0.2555(4)
C9B C 0.0606(4) -0.0463(5) 0.1545(4)
C10B C 0.0206(4) -0.0074(4) 0.3528(4)
C11B C -0.0355(4) 0.0235(3) 0.2506(4)
C12B C 0.0216(4) 0.1059(4) 0.3156(4)
H9A H -0.08300 0.16200 0.18600
H10A H 0.00000 0.15700 0.18400
H11A H -0.03600 0.22800 0.20700
H12A H -0.14300 0.23200 0.10200
H13A H -0.09600 0.29700 0.12700
H14A H -0.09900 0.27700 0.04600
H15A H -0.09000 0.12800 0.06800
H16A H -0.04400 0.16700 0.01000
H17A H -0.00700 0.12000 0.06800
H18A H 0.00000 0.37800 -0.02300
H19A H -0.05600 0.34100 0.02500
H20A H 0.00600 0.38400 0.06000
H21A H 0.02800 0.27700 -0.08000
H22A H 0.05400 0.20900 -0.03800
H23A H -0.02600 0.23200 -0.03600
H24A H 0.11500 0.34200 -0.02200
H25A H 0.11600 0.34600 0.06200
H26A H 0.13900 0.27600 0.02200
H9B H 0.18600 -0.08300 0.16200
H10B H 0.18400 0.00000 0.15700
H11B H 0.20700 -0.03600 0.22800
H12B H 0.10200 -0.14300 0.23200
H13B H 0.12700 -0.09600 0.29700
H14B H 0.04600 -0.09900 0.27700
H15B H 0.06800 -0.09000 0.12800
H16B H 0.01000 -0.04400 0.16700
H17B H 0.06800 -0.00700 0.12000
H18B H -0.02300 0.00000 0.37800
H19B H 0.02500 -0.05600 0.34100
H20B H 0.06000 0.00600 0.38400
H21B H -0.08000 0.02800 0.27700
H22B H -0.03800 0.05400 0.20900
H23B H -0.03600 -0.02600 0.23200
H24B H -0.02200 0.11500 0.34200
H25B H 0.06200 0.11600 0.34600
H26B H 0.02200 0.13900 0.27600
#END

data_CSD_CIF_JAGVAR
_audit_creation_date 2017-01-26
_audit_creation_method CSD-ConQuest-V1
_database_code_CSD JAGVAR
_database_code_depnum_ccdc_archive 'CCDC 911766'
_chemical_formula_sum 'C60 H78 Eu1 N6 O6 Pb2'
_chemical_formula_moiety
;
C54 H72 Eu1 N6 O6 Pb2,C6 H6
;
_journal_coden_Cambridge 1220
_journal_volume 19
_journal_year 2013
_journal_page_first 7718
_journal_name_full 'Chem.-Eur.J. '
loop_
_publ_author_name
"K.Zeckert"
"J.Griebel"
"R.Kirmse"
"M.Weiss"
"R.Denecke"
_chemical_name_systematic
;
bis(2,2',2''-plumbanetriyltris(6-t-butoxypyridine))-europium benzene solvate
;
_chemical_name_common
;
hexakis(mu-6-t-butoxypyridin-2-yl)-europium-di-lead benzene solvate
;
_cell_volume   5952.966
_exptl_crystal_colour 'orange'
_exptl_crystal_density_diffrn 1.725
_exptl_crystal_description 'prism'
_diffrn_ambient_temperature 130
#These two values have been output from a single CSD field.
_refine_ls_R_factor_gt 0.027
_refine_ls_wR_factor_gt 0.027
_symmetry_cell_setting cubic
_symmetry_space_group_name_H-M 'P a -3'
_symmetry_Int_Tables_number 205
loop_
_symmetry_equiv_pos_site_id
_symmetry_equiv_pos_as_xyz
1 x,y,z
2 1/2-x,-y,1/2+z
3 -x,1/2+y,1/2-z
4 1/2+x,1/2-y,-z
5 z,x,y
6 1/2+z,1/2-x,-y
7 1/2-z,-x,1/2+y
8 -z,1/2+x,1/2-y
9 y,z,x
10 -y,1/2+z,1/2-x
11 1/2+y,1/2-z,-x
12 1/2-y,-z,1/2+x
13 -x,-y,-z
14 -1/2+x,y,-1/2-z
15 x,-1/2-y,-1/2+z
16 -1/2-x,-1/2+y,z
17 -z,-x,-y
18 -1/2-z,-1/2+x,y
19 -1/2+z,x,-1/2-y
20 z,-1/2-x,-1/2+y
21 -y,-z,-x
22 y,-1/2-z,-1/2+x
23 -1/2-y,-1/2+z,x
24 -1/2+y,z,-1/2-x
_cell_length_a 18.1236(1)
_cell_length_b 18.1236(1)
_cell_length_c 18.1236(1)
_cell_angle_alpha 90
_cell_angle_beta 90
_cell_angle_gamma 90
_cell_formula_units_Z 4
loop_
_atom_type_symbol
_atom_type_radius_bond
C 0.68
H 0.23
Eu 1.98
N 0.68
O 0.68
Pb 1.46
loop_
_atom_site_label
_atom_site_type_symbol
_atom_site_fract_x
_atom_site_fract_y
_atom_site_fract_z
C1 C 0.1786(2) 0.0716(2) 0.0239(2)
C2 C 0.2531(2) 0.0889(2) 0.0151(2)
H1 H 0.27760 0.11880 0.05050
C3 C 0.2911(2) 0.0623(3) -0.0455(3)
H2 H 0.34180 0.07390 -0.05190
C4 C 0.2552(2) 0.0189(3) -0.0962(3)
H3 H 0.28030 0.00100 -0.13860
C5 C 0.1814(2) 0.0019(2) -0.0842(2)
C6 C 0.1652(2) -0.0819(3) -0.1929(2)
C7 C 0.2240(3) -0.1378(3) -0.1731(3)
H4 H 0.26770 -0.11210 -0.15430
H5 H 0.23740 -0.16620 -0.21710
H6 H 0.20510 -0.17130 -0.13510
C8 C 0.0969(3) -0.1225(3) -0.2177(3)
H7 H 0.08090 -0.15650 -0.17880
H8 H 0.10790 -0.15060 -0.26260
H9 H 0.05740 -0.08690 -0.22790
C9 C 0.1884(3) -0.0293(3) -0.2536(3)
H10 H 0.14810 0.00520 -0.26390
H11 H 0.20010 -0.05730 -0.29830
H12 H 0.23210 -0.00170 -0.23770
N1 N 0.14383(17) 0.02831(17) -0.02583(18)
O1 O 0.13855(16) -0.04178(18) -0.12798(16)
Eu1 Eu 0.00000 0.00000 0.00000
Pb1 Pb 0.128089(7) 0.128089(7) 0.128089(7)
C10 C 0.4432(9) 0.9532(10) 0.0078(13)
H13 H 0.40160 0.92160 0.01190
C1D C 0.0239(2) 0.1786(2) 0.0716(2)
C2D C 0.0151(2) 0.2531(2) 0.0889(2)
H1D H 0.05050 0.27760 0.11880
C3D C -0.0455(2) 0.2911(3) 0.0623(3)
H2D H -0.05190 0.34180 0.07390
C4D C -0.0962(2) 0.2552(3) 0.0189(3)
H3D H -0.13860 0.28030 0.00100
C5D C -0.0842(2) 0.1814(2) 0.0019(2)
C6D C -0.1929(2) 0.1652(3) -0.0819(2)
C7D C -0.1731(3) 0.2240(3) -0.1378(3)
H4D H -0.15430 0.26770 -0.11210
H5D H -0.21710 0.23740 -0.16620
H6D H -0.13510 0.20510 -0.17130
C8D C -0.2177(3) 0.0969(3) -0.1225(3)
H7D H -0.17880 0.08090 -0.15650
H8D H -0.26260 0.10790 -0.15060
H9D H -0.22790 0.05740 -0.08690
C9D C -0.2536(3) 0.1884(3) -0.0293(3)
H10D H -0.26390 0.14810 0.00520
H11D H -0.29830 0.20010 -0.05730
H12D H -0.23770 0.23210 -0.00170
N1D N -0.02583(17) 0.14383(17) 0.02831(18)
O1D O -0.12798(16) 0.13855(18) -0.04178(16)
C1H C 0.0716(2) 0.0239(2) 0.1786(2)
C2H C 0.0889(2) 0.0151(2) 0.2531(2)
H1H H 0.11880 0.05050 0.27760
C3H C 0.0623(2) -0.0455(3) 0.2911(3)
H2H H 0.07390 -0.05190 0.34180
C4H C 0.0189(2) -0.0962(3) 0.2552(3)
H3H H 0.00100 -0.13860 0.28030
C5H C 0.0019(2) -0.0842(2) 0.1814(2)
C6H C -0.0819(2) -0.1929(3) 0.1652(2)
C7H C -0.1378(3) -0.1731(3) 0.2240(3)
H4H H -0.11210 -0.15430 0.26770
H5H H -0.16620 -0.21710 0.23740
H6H H -0.17130 -0.13510 0.20510
C8H C -0.1225(3) -0.2177(3) 0.0969(3)
H7H H -0.15650 -0.17880 0.08090
H8H H -0.15060 -0.26260 0.10790
H9H H -0.08690 -0.22790 0.05740
C9H C -0.0293(3) -0.2536(3) 0.1884(3)
H10H H 0.00520 -0.26390 0.14810
H11H H -0.05730 -0.29830 0.20010
H12H H -0.00170 -0.23770 0.23210
N1H N 0.02831(17) -0.02583(17) 0.14383(18)
O1H O -0.04178(16) -0.12798(18) 0.13855(16)
C1L C -0.1786(2) -0.0716(2) -0.0239(2)
C2L C -0.2531(2) -0.0889(2) -0.0151(2)
H1L H -0.27760 -0.11880 -0.05050
C3L C -0.2911(2) -0.0623(3) 0.0455(3)
H2L H -0.34180 -0.07390 0.05190
C4L C -0.2552(2) -0.0189(3) 0.0962(3)
H3L H -0.28030 -0.00100 0.13860
C5L C -0.1814(2) -0.0019(2) 0.0842(2)
C6L C -0.1652(2) 0.0819(3) 0.1929(2)
C7L C -0.2240(3) 0.1378(3) 0.1731(3)
H4L H -0.26770 0.11210 0.15430
H5L H -0.23740 0.16620 0.21710
H6L H -0.20510 0.17130 0.13510
C8L C -0.0969(3) 0.1225(3) 0.2177(3)
H7L H -0.08090 0.15650 0.17880
H8L H -0.10790 0.15060 0.26260
H9L H -0.05740 0.08690 0.22790
C9L C -0.1884(3) 0.0293(3) 0.2536(3)
H10L H -0.14810 -0.00520 0.26390
H11L H -0.20010 0.05730 0.29830
H12L H -0.23210 0.00170 0.23770
N1L N -0.14383(17) -0.02831(17) 0.02583(18)
O1L O -0.13855(16) 0.04178(18) 0.12798(16)
Pb1L Pb -0.128089(7) -0.128089(7) -0.128089(7)
C1P C -0.0239(2) -0.1786(2) -0.0716(2)
C2P C -0.0151(2) -0.2531(2) -0.0889(2)
H1P H -0.05050 -0.27760 -0.11880
C3P C 0.0455(2) -0.2911(3) -0.0623(3)
H2P H 0.05190 -0.34180 -0.07390
C4P C 0.0962(2) -0.2552(3) -0.0189(3)
H3P H 0.13860 -0.28030 -0.00100
C5P C 0.0842(2) -0.1814(2) -0.0019(2)
C6P C 0.1929(2) -0.1652(3) 0.0819(2)
C7P C 0.1731(3) -0.2240(3) 0.1378(3)
H4P H 0.15430 -0.26770 0.11210
H5P H 0.21710 -0.23740 0.16620
H6P H 0.13510 -0.20510 0.17130
C8P C 0.2177(3) -0.0969(3) 0.1225(3)
H7P H 0.17880 -0.08090 0.15650
H8P H 0.26260 -0.10790 0.15060
H9P H 0.22790 -0.05740 0.08690
C9P C 0.2536(3) -0.1884(3) 0.0293(3)
H10P H 0.26390 -0.14810 -0.00520
H11P H 0.29830 -0.20010 0.05730
H12P H 0.23770 -0.23210 0.00170
N1P N 0.02583(17) -0.14383(17) -0.02831(18)
O1P O 0.12798(16) -0.13855(18) 0.04178(16)
C1T C -0.0716(2) -0.0239(2) -0.1786(2)
C2T C -0.0889(2) -0.0151(2) -0.2531(2)
H1T H -0.11880 -0.05050 -0.27760
C3T C -0.0623(2) 0.0455(3) -0.2911(3)
H2T H -0.07390 0.05190 -0.34180
C4T C -0.0189(2) 0.0962(3) -0.2552(3)
H3T H -0.00100 0.13860 -0.28030
C5T C -0.0019(2) 0.0842(2) -0.1814(2)
C6T C 0.0819(2) 0.1929(3) -0.1652(2)
C7T C 0.1378(3) 0.1731(3) -0.2240(3)
H4T H 0.11210 0.15430 -0.26770
H5T H 0.16620 0.21710 -0.23740
H6T H 0.17130 0.13510 -0.20510
C8T C 0.1225(3) 0.2177(3) -0.0969(3)
H7T H 0.15650 0.17880 -0.08090
H8T H 0.15060 0.26260 -0.10790
H9T H 0.08690 0.22790 -0.05740
C9T C 0.0293(3) 0.2536(3) -0.1884(3)
H10T H -0.00520 0.26390 -0.14810
H11T H 0.05730 0.29830 -0.20010
H12T H 0.00170 0.23770 -0.23210
N1T N -0.02831(17) 0.02583(17) -0.14383(18)
O1T O 0.04178(16) 0.12798(18) -0.13855(16)
C10Q C 0.4922(9) 0.9432(10) -0.0468(13)
H13Q H 0.48810 0.90160 -0.07840
C10W C 0.4532(9) 1.0078(10) 0.0568(13)
H13W H 0.42160 1.01190 0.09840
C10E C 0.5078(9) 1.0568(10) 0.0468(13)
H13E H 0.51190 1.09840 0.07840
C10K C 0.5468(9) 0.9922(10) -0.0568(13)
H13K H 0.57840 0.98810 -0.09840
C10L C 0.5568(9) 1.0468(10) -0.0078(13)
H13L H 0.59840 1.07840 -0.01190
#END

data_CSD_CIF_JAPCIM
_audit_creation_date 1990-02-14
_audit_creation_method CSD-ConQuest-V1
_database_code_CSD JAPCIM
_chemical_formula_sum 'C21 H21 N1 O3'
_chemical_formula_moiety
;
C21 H21 N1 O3
;
_journal_coeditor_code "IUCr AL0318"
_journal_coden_Cambridge 591
_journal_volume 45
_journal_year 1989
_journal_page_first 1400
_journal_name_full 'Acta Crystallogr.,Sect.C:Cryst.Struct.Commun. '
loop_
_publ_author_name
"E.Muller"
"H.-B.Burgi"
_chemical_name_systematic
;
2,2',2''-Trimethoxytriphenylamine
;
_cell_volume   3671.151
_exptl_crystal_density_diffrn 1.214
_diffrn_ambient_temperature ?
_diffrn_special_details
;
The study was carried out at room temperature,in the range 283-303K

;
#These two values have been output from a single CSD field.
_refine_ls_R_factor_gt 0.032
_refine_ls_wR_factor_gt 0.032
_symmetry_cell_setting cubic
_symmetry_space_group_name_H-M 'P a 3'
_symmetry_Int_Tables_number 205
loop_
_symmetry_equiv_pos_site_id
_symmetry_equiv_pos_as_xyz
1 x,y,z
2 z,x,y
3 y,z,x
4 1/2+x,y,1/2-z
5 1/2+z,x,1/2-y
6 1/2+y,z,1/2-x
7 1/2-x,1/2+y,z
8 1/2-z,1/2+x,y
9 1/2-y,1/2+z,x
10 -x,1/2+y,1/2-z
11 -z,1/2+x,1/2-y
12 -y,1/2+z,1/2-x
13 -x,-y,-z
14 -z,-x,-y
15 -y,-z,-x
16 -1/2-x,-y,-1/2+z
17 -1/2-z,-x,-1/2+y
18 -1/2-y,-z,-1/2+x
19 -1/2+x,-1/2-y,-z
20 -1/2+z,-1/2-x,-y
21 -1/2+y,-1/2-z,-x
22 x,-1/2-y,-1/2+z
23 z,-1/2-x,-1/2+y
24 y,-1/2-z,-1/2+x
_cell_length_a 15.4265(10)
_cell_length_b 15.4265(10)
_cell_length_c 15.4265(10)
_cell_angle_alpha 90
_cell_angle_beta 90
_cell_angle_gamma 90
_cell_formula_units_Z 8
loop_
_atom_type_symbol
_atom_type_radius_bond
C 0.68
H 0.23
N 0.68
O 0.68
loop_
_atom_site_label
_atom_site_type_symbol
_atom_site_fract_x
_atom_site_fract_y
_atom_site_fract_z
N1 N 0.1087(1) 0.10870 0.10870
O1 O 0.06306(9) 0.27159(8) 0.1519(1)
C1 C 0.0034(1) 0.2089(1) 0.1704(1)
C2 C 0.0274(1) 0.1245(1) 0.1492(1)
C3 C -0.0285(1) 0.0575(1) 0.1691(2)
C4 C -0.1069(1) 0.0738(2) 0.2098(2)
C5 C -0.1304(1) 0.1565(2) 0.2291(2)
C6 C -0.0763(2) 0.2244(2) 0.2096(1)
C7 C 0.0378(2) 0.3600(2) 0.1571(2)
H1 H -0.011(1) 0.000(1) 0.152(1)
H2 H -0.141(1) 0.026(1) 0.225(1)
H3 H -0.182(1) 0.171(1) 0.260(1)
H4 H -0.092(1) 0.284(1) 0.222(1)
H5 H 0.024(2) 0.373(2) 0.218(2)
H6 H 0.086(2) 0.396(2) 0.131(2)
H7 H -0.013(2) 0.368(1) 0.118(1)
C2A C 0.1492(1) 0.0274(1) 0.1245(1)
C2B C 0.1245(1) 0.1492(1) 0.0274(1)
C1A C 0.1704(1) 0.0034(1) 0.2089(1)
C3A C 0.1691(1) -0.0285(1) 0.0575(2)
C1B C 0.2089(1) 0.1704(1) 0.0034(1)
C3B C 0.0575(1) 0.1691(1) -0.0285(2)
O1A O 0.15190(9) 0.06306(8) 0.27159(10)
C6A C 0.2096(2) -0.0763(2) 0.2244(1)
C4A C 0.2098(1) -0.1069(2) 0.0738(2)
H1A H 0.152(1) -0.011(1) 0.000(1)
O1B O 0.27159(9) 0.15190(8) 0.06306(10)
C6B C 0.2244(2) 0.2096(2) -0.0763(1)
C4B C 0.0738(1) 0.2098(2) -0.1069(2)
H1B H 0.000(1) 0.152(1) -0.011(1)
C7A C 0.1571(2) 0.0378(2) 0.3600(2)
C5A C 0.2291(1) -0.1304(2) 0.1565(2)
H4A H 0.222(1) -0.092(1) 0.284(1)
H2A H 0.225(1) -0.141(1) 0.026(1)
C7B C 0.3600(2) 0.1571(2) 0.0378(2)
C5B C 0.1565(1) 0.2291(2) -0.1304(2)
H4B H 0.284(1) 0.222(1) -0.092(1)
H2B H 0.026(1) 0.225(1) -0.141(1)
H5A H 0.218(2) 0.024(2) 0.373(2)
H6A H 0.131(2) 0.086(2) 0.396(2)
H7A H 0.118(2) -0.013(1) 0.368(1)
H3A H 0.260(1) -0.182(1) 0.171(1)
H5B H 0.373(2) 0.218(2) 0.024(2)
H6B H 0.396(2) 0.131(2) 0.086(2)
H7B H 0.368(2) 0.118(1) -0.013(1)
H3B H 0.171(1) 0.260(1) -0.182(1)
#END

data_CSD_CIF_JAPCIM01
_audit_creation_date 1994-07-25
_audit_creation_method CSD-ConQuest-V1
_database_code_CSD JAPCIM01
_database_code_depnum_ccdc_archive 'CCDC 1182645'
_chemical_formula_sum 'C21 H21 N1 O3'
_chemical_formula_moiety
;
C21 H21 N1 O3
;
_journal_coden_Cambridge 440
_journal_volume 17
_journal_year 1993
_journal_page_first 787
_journal_name_full 'New J.Chem. '
loop_
_publ_author_name
"C.Soulie"
"P.Bassoul"
"J.Simon"
_chemical_name_systematic
;
2,2',2''-Trimethoxytriphenylamine
;
_chemical_melting_point 420.15
_cell_volume   3648.708
_exptl_crystal_density_diffrn 1.22
_diffrn_ambient_temperature ?
_diffrn_special_details
;
The study was carried out at room temperature,in the range 283-303K

;
#These two values have been output from a single CSD field.
_refine_ls_R_factor_gt 0.0333
_refine_ls_wR_factor_gt 0.0333
_symmetry_cell_setting cubic
_symmetry_space_group_name_H-M 'P a 3'
_symmetry_Int_Tables_number 205
loop_
_symmetry_equiv_pos_site_id
_symmetry_equiv_pos_as_xyz
1 x,y,z
2 z,x,y
3 y,z,x
4 -x,1/2+y,1/2-z
5 -z,1/2+x,1/2-y
6 -y,1/2+z,1/2-x
7 1/2-x,-y,1/2+z
8 1/2-z,-x,1/2+y
9 1/2-y,-z,1/2+x
10 1/2+x,1/2-y,-z
11 1/2+z,1/2-x,-y
12 1/2+y,1/2-z,-x
13 -x,-y,-z
14 -z,-x,-y
15 -y,-z,-x
16 x,-1/2-y,-1/2+z
17 z,-1/2-x,-1/2+y
18 y,-1/2-z,-1/2+x
19 -1/2+x,y,-1/2-z
20 -1/2+z,x,-1/2-y
21 -1/2+y,z,-1/2-x
22 -1/2-x,-1/2+y,z
23 -1/2-z,-1/2+x,y
24 -1/2-y,-1/2+z,x
_cell_length_a 15.395(2)
_cell_length_b 15.395(2)
_cell_length_c 15.395(2)
_cell_angle_alpha 90
_cell_angle_beta 90
_cell_angle_gamma 90
_cell_formula_units_Z 8
loop_
_atom_type_symbol
_atom_type_radius_bond
C 0.68
H 0.23
N 0.68
O 0.68
loop_
_atom_site_label
_atom_site_type_symbol
_atom_site_fract_x
_atom_site_fract_y
_atom_site_fract_z
N1 N 0.1086(1) 0.1086(1) 0.1086(1)
O1 O 0.1518(1) 0.0633(1) 0.2717(1)
C1 C 0.1492(1) 0.0273(1) 0.1243(2)
C2 C 0.1704(2) 0.0033(2) 0.2092(2)
C3 C 0.2097(2) -0.0764(2) 0.2249(2)
C4 C 0.1689(2) -0.0286(2) 0.0569(2)
C5 C 0.1570(3) 0.0373(3) 0.3598(2)
C6 C 0.2294(2) -0.1306(2) 0.1570(3)
C7 C 0.2099(2) -0.1073(2) 0.0731(3)
H1 H 0.224(2) -0.092(2) 0.291(2)
H2 H 0.226(2) -0.145(2) 0.023(2)
H3 H 0.155(2) -0.013(2) -0.001(2)
H4 H 0.128(2) 0.086(2) 0.395(2)
H5 H 0.261(2) -0.185(2) 0.168(2)
H6 H 0.116(2) -0.017(2) 0.372(2)
H7? H 0.219(2) -0.022(2) 0.375(2)
C1A C 0.1243(1) 0.1492(1) 0.0273(2)
C1B C 0.0273(1) 0.1243(1) 0.1492(2)
C2A C 0.2092(2) 0.1704(2) 0.0033(2)
C4A C 0.0569(2) 0.1689(2) -0.0286(2)
C2B C 0.0033(2) 0.2092(2) 0.1704(2)
C4B C -0.0286(2) 0.0569(2) 0.1689(2)
O1A O 0.2717(1) 0.1518(1) 0.0633(1)
C3A C 0.2249(2) 0.2097(2) -0.0764(2)
C7A C 0.0731(2) 0.2099(2) -0.1073(3)
H3A H -0.001(2) 0.155(2) -0.013(2)
O1B O 0.0633(1) 0.2717(1) 0.1518(1)
C3B C -0.0764(2) 0.2249(2) 0.2097(2)
C7B C -0.1073(2) 0.0731(2) 0.2099(3)
H3B H -0.013(2) -0.001(2) 0.155(2)
C5A C 0.3598(3) 0.1570(3) 0.0373(2)
C6A C 0.1570(2) 0.2294(2) -0.1306(3)
H1A H 0.291(2) 0.224(2) -0.092(2)
H2A H 0.023(2) 0.226(2) -0.145(2)
C5B C 0.0373(3) 0.3598(3) 0.1570(2)
C6B C -0.1306(2) 0.1570(2) 0.2294(3)
H1B H -0.092(2) 0.291(2) 0.224(2)
H2B H -0.145(2) 0.023(2) 0.226(2)
H4A H 0.395(2) 0.128(2) 0.086(2)
H6A H 0.372(2) 0.116(2) -0.017(2)
H5A H 0.168(2) 0.261(2) -0.185(2)
H4B H 0.086(2) 0.395(2) 0.128(2)
H6B H -0.017(2) 0.372(2) 0.116(2)
H5B H -0.185(2) 0.168(2) 0.261(2)
#END

data_CSD_CIF_JAVSEF
_audit_creation_date 2006-01-09
_audit_creation_method CSD-ConQuest-V1
_database_code_CSD JAVSEF
_database_code_depnum_ccdc_archive 'CCDC 268895'
_chemical_formula_sum 'C17 H38 N1 O5 P3 Ru2'
_chemical_formula_moiety
;
C17 H38 N1 O5 P3 Ru2
;
_journal_coden_Cambridge 179
_journal_volume 44
_journal_year 2005
_journal_page_first 5509
_journal_name_full 'Angew.Chem.,Int.Ed. '
loop_
_publ_author_name
"Y.Arikawa"
"S.Nagae"
"J.Morishita"
"K.Hiraki"
"M.Onishi"
_chemical_name_systematic
;
(\m~2~-Formato-C,O)-(\m~2~-hydrido)-(\m~2~-hydroxo)-(N-t-butylcyano)-dicarbony
l-tris(trimethylphosphine)-di-ruthenium
;
_cell_volume  17763.033
_exptl_crystal_colour 'pale yellow'
_exptl_crystal_density_diffrn 1.415
_exptl_crystal_description 'block'
_exptl_crystal_preparation 'benzene/hexane'
_diffrn_ambient_temperature 296.2
#These two values have been output from a single CSD field.
_refine_ls_R_factor_gt 0.0492
_refine_ls_wR_factor_gt 0.0492
_symmetry_cell_setting cubic
_symmetry_space_group_name_H-M 'P a -3'
_symmetry_Int_Tables_number 205
loop_
_symmetry_equiv_pos_site_id
_symmetry_equiv_pos_as_xyz
1 x,y,z
2 z,x,y
3 y,z,x
4 1/2+x,1/2-y,-z
5 -x,1/2+y,1/2-z
6 1/2-x,-y,1/2+z
7 1/2+z,1/2-x,-y
8 -z,1/2+x,1/2-y
9 1/2-z,-x,1/2+y
10 1/2+y,1/2-z,-x
11 -y,1/2+z,1/2-x
12 1/2-y,-z,1/2+x
13 -x,-y,-z
14 -z,-x,-y
15 -y,-z,-x
16 -1/2-x,-1/2+y,z
17 x,-1/2-y,-1/2+z
18 -1/2+x,y,-1/2-z
19 -1/2-z,-1/2+x,y
20 z,-1/2-x,-1/2+y
21 -1/2+z,x,-1/2-y
22 -1/2-y,-1/2+z,x
23 y,-1/2-z,-1/2+x
24 -1/2+y,z,-1/2-x
_cell_length_a 26.0919(3)
_cell_length_b 26.0919(3)
_cell_length_c 26.0919(3)
_cell_angle_alpha 90
_cell_angle_beta 90
_cell_angle_gamma 90
_cell_formula_units_Z 24
loop_
_atom_type_symbol
_atom_type_radius_bond
C 0.63
H 0.23
N 0.68
O 0.68
P 1.05
Ru 1.58
loop_
_atom_site_label
_atom_site_type_symbol
_atom_site_fract_x
_atom_site_fract_y
_atom_site_fract_z
Ru1 Ru -0.34107(1) -0.06869(1) -0.22717(1)
Ru2 Ru -0.42935(1) -0.01054(1) -0.23284(1)
P1 P -0.30133(5) -0.11895(5) -0.16721(5)
P2 P -0.42910(5) 0.06107(5) -0.28272(5)
P3 P -0.49451(4) 0.00927(4) -0.17661(5)
O1 O -0.4116(1) -0.07486(10) -0.1883(1)
O2 O -0.3780(1) 0.02242(10) -0.1800(1)
O3 O -0.2993(1) 0.0105(1) -0.1522(1)
O4 O -0.2407(2) -0.0461(2) -0.2766(1)
O5 O -0.5002(2) -0.0606(2) -0.3075(2)
N1 N -0.3816(2) -0.1625(2) -0.2944(2)
C1 C -0.3356(2) -0.0037(2) -0.1794(1)
C2 C -0.2802(2) -0.0546(2) -0.2582(2)
C3 C -0.4730(2) -0.0414(2) -0.2783(2)
C4 C -0.3638(2) -0.1286(2) -0.2720(2)
C5 C -0.4081(2) -0.2055(2) -0.3173(2)
C6 C -0.4183(3) -0.2436(3) -0.2734(3)
C7 C -0.3748(3) -0.2288(3) -0.3570(3)
C8 C -0.4590(3) -0.1878(3) -0.3358(4)
C9 C -0.3390(2) -0.1244(2) -0.1095(2)
C10 C -0.2388(2) -0.0995(3) -0.1455(3)
C11 C -0.2913(2) -0.1856(2) -0.1840(2)
C12 C -0.3793(3) 0.1060(2) -0.2665(3)
C13 C -0.4180(4) 0.0495(3) -0.3499(2)
C14 C -0.4846(3) 0.1028(3) -0.2857(3)
C15 C -0.4879(2) 0.0687(2) -0.1423(3)
C16 C -0.5601(2) 0.0109(2) -0.2001(2)
C17 C -0.4980(2) -0.0361(2) -0.1249(2)
H1 H -0.38490 -0.01240 -0.27160
H2 H -0.43580 -0.27360 -0.28690
H3 H -0.43960 -0.22740 -0.24770
H4 H -0.38610 -0.25390 -0.25820
H5 H -0.39270 -0.25720 -0.37300
H6 H -0.34350 -0.24110 -0.34130
H7 H -0.36660 -0.20330 -0.38280
H8 H -0.45430 -0.16100 -0.36110
H9 H -0.47860 -0.17450 -0.30720
H10 H -0.47720 -0.21630 -0.35120
H11 H -0.34680 -0.09050 -0.09650
H12 H -0.31990 -0.14340 -0.08390
H13 H -0.37080 -0.14230 -0.11710
H14 H -0.21420 -0.10380 -0.17300
H15 H -0.22870 -0.12050 -0.11650
H16 H -0.23980 -0.06380 -0.13520
H17 H -0.32410 -0.20210 -0.18940
H18 H -0.27310 -0.20280 -0.15650
H19 H -0.27110 -0.18760 -0.21520
H20 H -0.34690 0.08810 -0.26350
H21 H -0.38740 0.12230 -0.23400
H22 H -0.37680 0.13190 -0.29300
H23 H -0.44790 0.03310 -0.36480
H24 H -0.38840 0.02740 -0.35400
H25 H -0.41180 0.08180 -0.36720
H26 H -0.47600 0.13350 -0.30480
H27 H -0.49500 0.11210 -0.25130
H28 H -0.51250 0.08500 -0.30270
H29 H -0.45690 0.06780 -0.12190
H30 H -0.51730 0.07350 -0.12000
H31 H -0.48610 0.09680 -0.16650
H32 H -0.56240 0.03440 -0.22880
H33 H -0.58270 0.02220 -0.17290
H34 H -0.57010 -0.02320 -0.21120
H35 H -0.50180 -0.07040 -0.13870
H36 H -0.52720 -0.02810 -0.10330
H37 H -0.46680 -0.03430 -0.10470
#END

data_CSD_CIF_JIYLUY
_audit_creation_date 1992-05-19
_audit_creation_method CSD-ConQuest-V1
_database_code_CSD JIYLUY
_chemical_formula_sum 'C66 H69 Bi1 O6 Si3'
_chemical_formula_moiety
;
C54 H45 Bi1 O3 Si3,3(C4 H8 O1)
;
_journal_coden_Cambridge 580
_journal_volume 10
_journal_year 1991
_journal_page_first 437
_journal_name_full 'Polyhedron '
loop_
_publ_author_name
"M.-C.Massiani"
"R.Papiernik"
"L.G.Hubert-Pfalzgraf"
"J.-C.Daran"
_chemical_name_systematic
;
tris(Triphenylsiloxy-O)-bismuth tetrahydrofuran solvate
;
_cell_volume  12152.723
_exptl_crystal_colour 'white'
_exptl_crystal_density_diffrn 1.368
_diffrn_ambient_temperature 180.15
#These two values have been output from a single CSD field.
_refine_ls_R_factor_gt 0.0322
_refine_ls_wR_factor_gt 0.0322
_symmetry_cell_setting cubic
_symmetry_space_group_name_H-M 'P a 3'
_symmetry_Int_Tables_number 205
loop_
_symmetry_equiv_pos_site_id
_symmetry_equiv_pos_as_xyz
1 x,y,z
2 z,x,y
3 y,z,x
4 1/2+x,y,1/2-z
5 1/2+z,x,1/2-y
6 1/2+y,z,1/2-x
7 1/2-x,1/2+y,z
8 1/2-z,1/2+x,y
9 1/2-y,1/2+z,x
10 -x,1/2+y,1/2-z
11 -z,1/2+x,1/2-y
12 -y,1/2+z,1/2-x
13 -x,-y,-z
14 -z,-x,-y
15 -y,-z,-x
16 -1/2-x,-y,-1/2+z
17 -1/2-z,-x,-1/2+y
18 -1/2-y,-z,-1/2+x
19 -1/2+x,-1/2-y,-z
20 -1/2+z,-1/2-x,-y
21 -1/2+y,-1/2-z,-x
22 x,-1/2-y,-1/2+z
23 z,-1/2-x,-1/2+y
24 y,-1/2-z,-1/2+x
_cell_length_a 22.991(7)
_cell_length_b 22.991(7)
_cell_length_c 22.991(7)
_cell_angle_alpha 90
_cell_angle_beta 90
_cell_angle_gamma 90
_cell_formula_units_Z 8
loop_
_atom_type_symbol
_atom_type_radius_bond
C 0.68
H 0.23
Bi 1.54
O 0.68
Si 1.20
loop_
_atom_site_label
_atom_site_type_symbol
_atom_site_fract_x
_atom_site_fract_y
_atom_site_fract_z
Bi1 Bi 0.19975(2) 0.19975(2) 0.19975(2)
O1 O 0.2891(5) 0.2879(4) 0.1732(4)
O2 O 0.1340(5) 0.1495(5) 0.2318(5)
Si1 Si 0.0969(2) 0.0997(2) 0.2612(2)
C1 C 0.342(1) 0.286(1) 0.140(1)
C2 C 0.361(1) 0.344(1) 0.131(1)
C3 C 0.3228(9) 0.385(1) 0.1669(9)
C4 C 0.2881(8) 0.3420(7) 0.2047(9)
C5 C 0.0478(7) 0.1346(6) 0.3147(6)
C6 C 0.0615(8) 0.1901(9) 0.3381(8)
C7 C 0.0241(8) 0.2172(8) 0.3753(8)
C8 C -0.0269(8) 0.194(1) 0.3911(8)
C9 C -0.043(1) 0.139(1) 0.370(1)
C10 C -0.004(1) 0.112(1) 0.329(1)
C11 C 0.1455(7) 0.0454(7) 0.2965(9)
C12 C 0.1298(9) 0.0176(9) 0.347(1)
C13 C 0.164(1) -0.0271(9) 0.3728(9)
C14 C 0.2160(8) -0.0424(7) 0.3432(8)
C15 C 0.2327(7) -0.0152(8) 0.2929(9)
C16 C 0.197(1) 0.0278(8) 0.2703(7)
C17 C 0.0509(6) 0.0588(7) 0.2085(7)
C18 C 0.0266(8) 0.0884(8) 0.1595(8)
C19 C -0.0096(7) 0.0588(7) 0.1231(7)
C20 C -0.0259(7) 0.0032(8) 0.1328(8)
C21 C -0.0018(8) -0.0276(8) 0.1773(7)
C22 C 0.0353(7) -0.0012(7) 0.2159(7)
H1 H 0.33430 0.26730 0.10210
H2 H 0.40130 0.34850 0.14330
H3 H 0.35720 0.35480 0.08980
H4 H 0.34640 0.41040 0.19090
H5 H 0.29690 0.40730 0.14200
H6 H 0.30650 0.33740 0.24270
H7 H 0.24810 0.35550 0.20950
H8 H 0.09800 0.20910 0.32700
H9 H 0.03550 0.25490 0.39180
H10 H -0.05300 0.21590 0.41680
H11 H -0.07870 0.12030 0.38260
H12 H -0.01590 0.07590 0.31130
H13 H 0.09320 0.02870 0.36630
H14 H 0.15330 -0.04630 0.40910
H15 H 0.24080 -0.07330 0.35890
H16 H 0.26900 -0.02590 0.27320
H17 H 0.20950 0.04700 0.23420
H18 H 0.03630 0.12910 0.15180
H19 H -0.02510 0.07880 0.08880
H20 H -0.05520 -0.01500 0.10790
H21 H -0.01080 -0.06900 0.18160
H22 H 0.05100 -0.02320 0.24890
O2A O 0.2318(5) 0.1340(5) 0.1495(5)
O2B O 0.1495(5) 0.2318(5) 0.1340(5)
Si1A Si 0.2612(2) 0.0969(2) 0.0997(2)
Si1B Si 0.0997(2) 0.2612(2) 0.0969(2)
C5A C 0.3147(7) 0.0478(6) 0.1346(6)
C11A C 0.2965(7) 0.1455(7) 0.0454(9)
C17A C 0.2085(6) 0.0509(7) 0.0588(7)
C5B C 0.1346(7) 0.3147(6) 0.0478(6)
C11B C 0.0454(7) 0.2965(7) 0.1455(9)
C17B C 0.0588(6) 0.2085(7) 0.0509(7)
C6A C 0.3381(8) 0.0615(9) 0.1901(8)
C10A C 0.329(1) -0.004(1) 0.112(1)
C12A C 0.3470(9) 0.1298(9) 0.0176(10)
C16A C 0.2703(10) 0.1970(8) 0.0278(7)
C18A C 0.1595(8) 0.0266(8) 0.0884(8)
C22A C 0.2159(7) 0.0353(7) -0.0012(7)
C6B C 0.1901(8) 0.3381(9) 0.0615(8)
C10B C 0.112(1) 0.329(1) -0.004(1)
C12B C 0.0176(9) 0.3470(9) 0.1298(10)
C16B C 0.0278(10) 0.2703(8) 0.1970(7)
C18B C 0.0884(8) 0.1595(8) 0.0266(8)
C22B C -0.0012(7) 0.2159(7) 0.0353(7)
C7A C 0.3753(8) 0.0241(8) 0.2172(8)
H8A H 0.32700 0.09800 0.20910
C9A C 0.370(1) -0.043(1) 0.139(1)
H12A H 0.31130 -0.01590 0.07590
C13A C 0.3728(10) 0.1640(9) -0.0271(9)
H13A H 0.36630 0.09320 0.02870
C15A C 0.2929(7) 0.2327(8) -0.0152(9)
H17A H 0.23420 0.20950 0.04700
C19A C 0.1231(7) -0.0096(7) 0.0588(7)
H18A H 0.15180 0.03630 0.12910
C21A C 0.1773(8) -0.0018(8) -0.0276(7)
H22A H 0.24890 0.05100 -0.02320
C7B C 0.2172(8) 0.3753(8) 0.0241(8)
H8B H 0.20910 0.32700 0.09800
C9B C 0.139(1) 0.370(1) -0.043(1)
H12B H 0.07590 0.31130 -0.01590
C13B C -0.0271(10) 0.3728(9) 0.1640(9)
H13B H 0.02870 0.36630 0.09320
C15B C -0.0152(7) 0.2929(8) 0.2327(9)
H17B H 0.04700 0.23420 0.20950
C19B C 0.0588(7) 0.1231(7) -0.0096(7)
H18B H 0.12910 0.15180 0.03630
C21B C -0.0276(8) 0.1773(8) -0.0018(7)
H22B H -0.02320 0.24890 0.05100
C8A C 0.3911(8) -0.0269(10) 0.1940(8)
H9A H 0.39180 0.03550 0.25490
H11A H 0.38260 -0.07870 0.12030
C14A C 0.3432(8) 0.2160(7) -0.0424(8)
H14A H 0.40910 0.15330 -0.04630
H16A H 0.27320 0.26900 -0.02590
C20A C 0.1328(7) -0.0259(8) 0.0032(8)
H19A H 0.08880 -0.02510 0.07880
H21A H 0.18160 -0.01080 -0.06900
C8B C 0.1940(8) 0.3911(10) -0.0269(8)
H9B H 0.25490 0.39180 0.03550
H11B H 0.12030 0.38260 -0.07870
C14B C -0.0424(8) 0.3432(7) 0.2160(8)
H14B H -0.04630 0.40910 0.15330
H16B H -0.02590 0.27320 0.26900
C20B C 0.0032(7) 0.1328(8) -0.0259(8)
H19B H 0.07880 0.08880 -0.02510
H21B H -0.06900 0.18160 -0.01080
H10A H 0.41680 -0.05300 0.21590
H15A H 0.35890 0.24080 -0.07330
H20A H 0.10790 -0.05520 -0.01500
H10B H 0.21590 0.41680 -0.05300
H15B H -0.07330 0.35890 0.24080
H20B H -0.01500 0.10790 -0.05520
#END

data_CSD_CIF_JOFRON
_audit_creation_date 2014-05-19
_audit_creation_method CSD-ConQuest-V1
_database_code_CSD JOFRON
_database_code_depnum_ccdc_archive 'CCDC 980333'
_chemical_formula_sum 'C8 H4 Si1'
_chemical_formula_moiety
;
C8 H4 Si1
;
_journal_coden_Cambridge 1220
_journal_volume 20
_journal_year 2014
_journal_page_first 3600
_journal_name_full 'Chem.-Eur.J. '
loop_
_publ_author_name
"F.L.Geyer"
"F.Rominger"
"U.H.F.Bunz"
_chemical_name_systematic
;
tetraethynylsilane
;
_cell_volume   1605.353
_exptl_crystal_colour 'colorless'
_exptl_crystal_density_diffrn 1.061
_exptl_crystal_description 'polyhedron'
_diffrn_ambient_temperature 200
#These two values have been output from a single CSD field.
_refine_ls_R_factor_gt 0.0326
_refine_ls_wR_factor_gt 0.0326
_symmetry_cell_setting cubic
_symmetry_space_group_name_H-M 'P a -3'
_symmetry_Int_Tables_number 205
loop_
_symmetry_equiv_pos_site_id
_symmetry_equiv_pos_as_xyz
1 x,y,z
2 1/2-x,-y,1/2+z
3 -x,1/2+y,1/2-z
4 1/2+x,1/2-y,-z
5 z,x,y
6 1/2+z,1/2-x,-y
7 1/2-z,-x,1/2+y
8 -z,1/2+x,1/2-y
9 y,z,x
10 -y,1/2+z,1/2-x
11 1/2+y,1/2-z,-x
12 1/2-y,-z,1/2+x
13 -x,-y,-z
14 -1/2+x,y,-1/2-z
15 x,-1/2-y,-1/2+z
16 -1/2-x,-1/2+y,z
17 -z,-x,-y
18 -1/2-z,-1/2+x,y
19 -1/2+z,x,-1/2-y
20 z,-1/2-x,-1/2+y
21 -y,-z,-x
22 y,-1/2-z,-1/2+x
23 -1/2-y,-1/2+z,x
24 -1/2+y,z,-1/2-x
_cell_length_a 11.7091(13)
_cell_length_b 11.7091(13)
_cell_length_c 11.7091(13)
_cell_angle_alpha 90
_cell_angle_beta 90
_cell_angle_gamma 90
_cell_formula_units_Z 8
loop_
_atom_type_symbol
_atom_type_radius_bond
C 0.68
H 0.23
Si 1.20
loop_
_atom_site_label
_atom_site_type_symbol
_atom_site_fract_x
_atom_site_fract_y
_atom_site_fract_z
Si1 Si 0.37759(2) 0.62241(2) 0.12241(2)
C1 C 0.28835(9) 0.71165(9) 0.21165(9)
C2 C 0.23022(12) 0.76978(12) 0.26978(12)
H1 H 0.1832(19) 0.8168(19) 0.3168(19)
C3 C 0.28766(10) 0.5319(1) 0.03473(10)
C4 C 0.23167(13) 0.47048(13) -0.02249(12)
H2 H 0.1869(18) 0.4158(18) -0.0737(18)
C3F C 0.46527(10) 0.71234(10) 0.0319(1)
C4F C 0.52249(13) 0.76833(13) -0.02952(12)
H2F H 0.5737(18) 0.8131(18) -0.0842(18)
C3I C 0.4681(1) 0.53473(10) 0.21234(10)
C4I C 0.52952(13) 0.47751(13) 0.26833(12)
H2I H 0.5842(18) 0.4263(18) 0.3131(18)
#END

data_CSD_CIF_KABBEU
_audit_creation_date 1989-07-19
_audit_creation_method CSD-ConQuest-V1
_database_code_CSD KABBEU
_chemical_formula_sum 'C50 H42 Au2 P2'
_chemical_formula_moiety
;
C38 H30 Au2 P2,2(C6 H6)
;
_journal_coden_Cambridge 36
_journal_volume 344
_journal_year 1988
_journal_page_first C49
_journal_name_full 'J.Organomet.Chem. '
loop_
_publ_author_name
"M.I.Bruce"
"K.R.Grundy"
"M.J.Liddell"
"M.R.Snow"
"E.R.T.Tiekink"
_chemical_name_systematic
;
(\m~2~-Acetylene)-bis(triphenylphosphine-gold) dibenzene clathrate
;
_cell_volume   4193.532
_exptl_crystal_density_diffrn 1.74
_exptl_special_details
;
Isomorphous with tri-m-tolylphosphine analogues

;
_diffrn_ambient_temperature ?
_diffrn_special_details
;
The study was carried out at room temperature,in the range 283-303K

;
#These two values have been output from a single CSD field.
_refine_ls_R_factor_gt 0.025
_refine_ls_wR_factor_gt 0.025
_symmetry_cell_setting cubic
_symmetry_space_group_name_H-M 'P a 3'
_symmetry_Int_Tables_number 205
loop_
_symmetry_equiv_pos_site_id
_symmetry_equiv_pos_as_xyz
1 x,y,z
2 z,x,y
3 y,z,x
4 1/2+x,y,1/2-z
5 1/2+z,x,1/2-y
6 1/2+y,z,1/2-x
7 1/2-x,1/2+y,z
8 1/2-z,1/2+x,y
9 1/2-y,1/2+z,x
10 -x,1/2+y,1/2-z
11 -z,1/2+x,1/2-y
12 -y,1/2+z,1/2-x
13 -x,-y,-z
14 -z,-x,-y
15 -y,-z,-x
16 -1/2-x,-y,-1/2+z
17 -1/2-z,-x,-1/2+y
18 -1/2-y,-z,-1/2+x
19 -1/2+x,-1/2-y,-z
20 -1/2+z,-1/2-x,-y
21 -1/2+y,-1/2-z,-x
22 x,-1/2-y,-1/2+z
23 z,-1/2-x,-1/2+y
24 y,-1/2-z,-1/2+x
_cell_length_a 16.126(4)
_cell_length_b 16.126(4)
_cell_length_c 16.126(4)
_cell_angle_alpha 90
_cell_angle_beta 90
_cell_angle_gamma 90
_cell_formula_units_Z 4
loop_
_atom_type_symbol
_atom_type_radius_bond
C 0.68
H 0.23
Au 1.50
P 1.05
loop_
_atom_site_label
_atom_site_type_symbol
_atom_site_fract_x
_atom_site_fract_y
_atom_site_fract_z
Au1 Au 0.09292(2) 0.09292(2) 0.09292(2)
P1 P 0.1746(1) 0.1746(1) 0.1746(1)
C1 C 0.0213(4) 0.0213(4) 0.0213(4)
C2 C 0.2165(4) 0.2632(4) 0.1195(4)
C3 C 0.2939(5) 0.2968(5) 0.1373(5)
C4 C 0.3235(6) 0.3652(5) 0.0915(6)
C5 C 0.2773(7) 0.3977(5) 0.0311(6)
C6 C 0.2001(7) 0.3666(6) 0.0132(6)
C7 C 0.1705(5) 0.2975(5) 0.0571(5)
C8 C 0.3181(13) 0.4389(10) 0.3604(17)
C9 C 0.3840(17) 0.4275(12) 0.3083(11)
H1 H 0.3374(5) 0.2843(5) 0.1769(5)
H2 H 0.3777(6) 0.3772(5) 0.1148(6)
H3 H 0.2848(7) 0.4429(5) -0.0080(6)
H4 H 0.1562(7) 0.3803(6) -0.0256(6)
H5 H 0.1168(5) 0.2854(5) 0.0328(5)
C2A C 0.1195(4) 0.2165(4) 0.2632(4)
C2B C 0.2632(4) 0.1195(4) 0.2165(4)
C1L C -0.0213(4) -0.0213(4) -0.0213(4)
C3A C 0.1373(5) 0.2939(5) 0.2968(5)
C7A C 0.0571(5) 0.1705(5) 0.2975(5)
C3B C 0.2968(5) 0.1373(5) 0.2939(5)
C7B C 0.2975(5) 0.0571(5) 0.1705(5)
Au1L Au -0.09292(2) -0.09292(2) -0.09292(2)
C4A C 0.0915(6) 0.3235(5) 0.3652(6)
H1A H 0.1769(5) 0.3374(5) 0.2843(5)
C6A C 0.0132(7) 0.2001(6) 0.3666(6)
H5A H 0.0328(5) 0.1168(5) 0.2854(5)
C4B C 0.3652(6) 0.0915(5) 0.3235(6)
H1B H 0.2843(5) 0.1769(5) 0.3374(5)
C6B C 0.3666(7) 0.0132(6) 0.2001(6)
H5B H 0.2854(5) 0.0328(5) 0.1168(5)
P1L P -0.1746(1) -0.1746(1) -0.1746(1)
C5A C 0.0311(7) 0.2773(5) 0.3977(6)
H2A H 0.1148(6) 0.3777(5) 0.3772(6)
H4A H -0.0256(7) 0.1562(6) 0.3803(6)
C5B C 0.3977(7) 0.0311(5) 0.2773(6)
H2B H 0.3772(6) 0.1148(5) 0.3777(6)
H4B H 0.3803(7) -0.0256(6) 0.1562(6)
C2L C -0.2165(4) -0.2632(4) -0.1195(4)
C2M C -0.1195(4) -0.2165(4) -0.2632(4)
C2N C -0.2632(4) -0.1195(4) -0.2165(4)
H3A H -0.0080(7) 0.2848(5) 0.4429(6)
H3B H 0.4429(7) -0.0080(5) 0.2848(6)
C3L C -0.2939(5) -0.2968(5) -0.1373(5)
C7L C -0.1705(5) -0.2975(5) -0.0571(5)
C3M C -0.1373(5) -0.2939(5) -0.2968(5)
C7M C -0.0571(5) -0.1705(5) -0.2975(5)
C3N C -0.2968(5) -0.1373(5) -0.2939(5)
C7N C -0.2975(5) -0.0571(5) -0.1705(5)
C4L C -0.3235(6) -0.3652(5) -0.0915(6)
H1L H -0.3374(5) -0.2843(5) -0.1769(5)
C6L C -0.2001(7) -0.3666(6) -0.0132(6)
H5L H -0.1168(5) -0.2854(5) -0.0328(5)
C4M C -0.0915(6) -0.3235(5) -0.3652(6)
H1M H -0.1769(5) -0.3374(5) -0.2843(5)
C6M C -0.0132(7) -0.2001(6) -0.3666(6)
H5M H -0.0328(5) -0.1168(5) -0.2854(5)
C4N C -0.3652(6) -0.0915(5) -0.3235(6)
H1N H -0.2843(5) -0.1769(5) -0.3374(5)
C6N C -0.3666(7) -0.0132(6) -0.2001(6)
H5N H -0.2854(5) -0.0328(5) -0.1168(5)
C5L C -0.2773(7) -0.3977(5) -0.0311(6)
H2L H -0.3777(6) -0.3772(5) -0.1148(6)
H4L H -0.1562(7) -0.3803(6) 0.0256(6)
C5M C -0.0311(7) -0.2773(5) -0.3977(6)
H2M H -0.1148(6) -0.3777(5) -0.3772(6)
H4M H 0.0256(7) -0.1562(6) -0.3803(6)
C5N C -0.3977(7) -0.0311(5) -0.2773(6)
H2N H -0.3772(6) -0.1148(5) -0.3777(6)
H4N H -0.3803(7) 0.0256(6) -0.1562(6)
H3L H -0.2848(7) -0.4429(5) 0.0080(6)
H3M H 0.0080(7) -0.2848(5) -0.4429(6)
H3N H -0.4429(7) 0.0080(5) -0.2848(6)
C9A C 0.3083(17) 0.3840(12) 0.4275(11)
C8B C 0.4389(13) 0.3604(10) 0.3181(17)
C8A C 0.3604(13) 0.3181(10) 0.4389(17)
C9B C 0.4275(17) 0.3083(12) 0.3840(11)
#END

data_CSD_CIF_KABBIY
_audit_creation_date 1989-07-19
_audit_creation_method CSD-ConQuest-V1
_database_code_CSD KABBIY
_chemical_formula_sum 'C44 H42 Au2 P2'
_chemical_formula_moiety
;
C44 H42 Au2 P2
;
_journal_coden_Cambridge 36
_journal_volume 344
_journal_year 1988
_journal_page_first C49
_journal_name_full 'J.Organomet.Chem. '
loop_
_publ_author_name
"M.I.Bruce"
"K.R.Grundy"
"M.J.Liddell"
"M.R.Snow"
"E.R.T.Tiekink"
_chemical_name_systematic
;
(\m~2~-Acetylene)-bis(tri-m-tolylphosphine-gold)
;
_cell_volume   4167.063
_exptl_crystal_density_diffrn 1.637
_exptl_special_details
;
Isomorphous with the triphenylphosphine analogue and tri- m-tolylphosphine 
solvated analogue
;
_diffrn_ambient_temperature ?
_diffrn_special_details
;
The study was carried out at room temperature,in the range 283-303K

;
#These two values have been output from a single CSD field.
_refine_ls_R_factor_gt 0.038
_refine_ls_wR_factor_gt 0.038
_symmetry_cell_setting cubic
_symmetry_space_group_name_H-M 'P a 3'
_symmetry_Int_Tables_number 205
loop_
_symmetry_equiv_pos_site_id
_symmetry_equiv_pos_as_xyz
1 x,y,z
2 z,x,y
3 y,z,x
4 1/2+x,y,1/2-z
5 1/2+z,x,1/2-y
6 1/2+y,z,1/2-x
7 1/2-x,1/2+y,z
8 1/2-z,1/2+x,y
9 1/2-y,1/2+z,x
10 -x,1/2+y,1/2-z
11 -z,1/2+x,1/2-y
12 -y,1/2+z,1/2-x
13 -x,-y,-z
14 -z,-x,-y
15 -y,-z,-x
16 -1/2-x,-y,-1/2+z
17 -1/2-z,-x,-1/2+y
18 -1/2-y,-z,-1/2+x
19 -1/2+x,-1/2-y,-z
20 -1/2+z,-1/2-x,-y
21 -1/2+y,-1/2-z,-x
22 x,-1/2-y,-1/2+z
23 z,-1/2-x,-1/2+y
24 y,-1/2-z,-1/2+x
_cell_length_a 16.092(5)
_cell_length_b 16.092(5)
_cell_length_c 16.092(5)
_cell_angle_alpha 90
_cell_angle_beta 90
_cell_angle_gamma 90
_cell_formula_units_Z 4
loop_
_atom_type_symbol
_atom_type_radius_bond
C 0.68
H 0.23
Au 1.50
P 1.05
loop_
_atom_site_label
_atom_site_type_symbol
_atom_site_fract_x
_atom_site_fract_y
_atom_site_fract_z
Au1 Au 0.09280(2) 0.09280(2) 0.09280(2)
P1 P 0.1743(1) 0.1743(1) 0.1743(1)
C1 C 0.0202(4) 0.0202(4) 0.0202(4)
C2 C 0.2254(5) 0.2538(6) 0.1173(5)
C3 C 0.2165(6) 0.3387(6) 0.1343(6)
C4 C 0.2573(9) 0.3974(7) 0.0860(8)
C5 C 0.3047(6) 0.3755(6) 0.0199(6)
C6 C 0.3158(6) 0.2915(6) 0.0015(6)
C7 C 0.2715(6) 0.2328(6) 0.0483(5)
C8 C 0.3732(9) 0.2611(9) -0.0699(8)
H1 H 0.1860(6) 0.3699(6) 0.1759(6)
H2 H 0.2615(9) 0.4576(7) 0.0875(8)
H3 H 0.3245(6) 0.4274(6) -0.0035(6)
H4 H 0.2853(6) 0.1803(6) 0.0219(5)
H5 H 0.3996(9) 0.3081(9) -0.0967(8)
H6 H 0.3397(9) 0.2312(9) -0.1102(8)
H7 H 0.4155(9) 0.2243(9) -0.0477(8)
C2A C 0.1173(5) 0.2254(6) 0.2538(5)
C2B C 0.2538(5) 0.1173(6) 0.2254(5)
C1L C -0.0202(4) -0.0202(4) -0.0202(4)
C3A C 0.1343(6) 0.2165(6) 0.3387(6)
C7A C 0.0483(6) 0.2715(6) 0.2328(5)
C3B C 0.3387(6) 0.1343(6) 0.2165(6)
C7B C 0.2328(6) 0.0483(6) 0.2715(5)
Au1L Au -0.09280(2) -0.09280(2) -0.09280(2)
C4A C 0.0860(9) 0.2573(7) 0.3974(8)
H1A H 0.1759(6) 0.1860(6) 0.3699(6)
C6A C 0.0015(6) 0.3158(6) 0.2915(6)
H4A H 0.0219(6) 0.2853(6) 0.1803(5)
C4B C 0.3974(9) 0.0860(7) 0.2573(8)
H1B H 0.3699(6) 0.1759(6) 0.1860(6)
C6B C 0.2915(6) 0.0015(6) 0.3158(6)
H4B H 0.1803(6) 0.0219(6) 0.2853(5)
P1L P -0.1743(1) -0.1743(1) -0.1743(1)
C5A C 0.0199(6) 0.3047(6) 0.3755(6)
H2A H 0.0875(9) 0.2615(7) 0.4576(8)
C8A C -0.0699(9) 0.3732(9) 0.2611(8)
C5B C 0.3755(6) 0.0199(6) 0.3047(6)
H2B H 0.4576(9) 0.0875(7) 0.2615(8)
C8B C 0.2611(9) -0.0699(9) 0.3732(8)
C2L C -0.2254(5) -0.2538(6) -0.1173(5)
C2M C -0.1173(5) -0.2254(6) -0.2538(5)
C2N C -0.2538(5) -0.1173(6) -0.2254(5)
H3A H -0.0035(6) 0.3245(6) 0.4274(6)
H5A H -0.0967(9) 0.3996(9) 0.3081(8)
H6A H -0.1102(9) 0.3397(9) 0.2312(8)
H7A H -0.0477(9) 0.4155(9) 0.2243(8)
H3B H 0.4274(6) -0.0035(6) 0.3245(6)
H5B H 0.3081(9) -0.0967(9) 0.3996(8)
H6B H 0.2312(9) -0.1102(9) 0.3397(8)
H7B H 0.2243(9) -0.0477(9) 0.4155(8)
C3L C -0.2165(6) -0.3387(6) -0.1343(6)
C7L C -0.2715(6) -0.2328(6) -0.0483(5)
C3M C -0.1343(6) -0.2165(6) -0.3387(6)
C7M C -0.0483(6) -0.2715(6) -0.2328(5)
C3N C -0.3387(6) -0.1343(6) -0.2165(6)
C7N C -0.2328(6) -0.0483(6) -0.2715(5)
C4L C -0.2573(9) -0.3974(7) -0.0860(8)
H1L H -0.1860(6) -0.3699(6) -0.1759(6)
C6L C -0.3158(6) -0.2915(6) -0.0015(6)
H4L H -0.2853(6) -0.1803(6) -0.0219(5)
C4M C -0.0860(9) -0.2573(7) -0.3974(8)
H1M H -0.1759(6) -0.1860(6) -0.3699(6)
C6M C -0.0015(6) -0.3158(6) -0.2915(6)
H4M H -0.0219(6) -0.2853(6) -0.1803(5)
C4N C -0.3974(9) -0.0860(7) -0.2573(8)
H1N H -0.3699(6) -0.1759(6) -0.1860(6)
C6N C -0.2915(6) -0.0015(6) -0.3158(6)
H4N H -0.1803(6) -0.0219(6) -0.2853(5)
C5L C -0.3047(6) -0.3755(6) -0.0199(6)
H2L H -0.2615(9) -0.4576(7) -0.0875(8)
C8L C -0.3732(9) -0.2611(9) 0.0699(8)
C5M C -0.0199(6) -0.3047(6) -0.3755(6)
H2M H -0.0875(9) -0.2615(7) -0.4576(8)
C8M C 0.0699(9) -0.3732(9) -0.2611(8)
C5N C -0.3755(6) -0.0199(6) -0.3047(6)
H2N H -0.4576(9) -0.0875(7) -0.2615(8)
C8N C -0.2611(9) 0.0699(9) -0.3732(8)
H3L H -0.3245(6) -0.4274(6) 0.0035(6)
H5L H -0.3996(9) -0.3081(9) 0.0967(8)
H6L H -0.3397(9) -0.2312(9) 0.1102(8)
H7L H -0.4155(9) -0.2243(9) 0.0477(8)
H3M H 0.0035(6) -0.3245(6) -0.4274(6)
H5M H 0.0967(9) -0.3996(9) -0.3081(8)
H6M H 0.1102(9) -0.3397(9) -0.2312(8)
H7M H 0.0477(9) -0.4155(9) -0.2243(8)
H3N H -0.4274(6) 0.0035(6) -0.3245(6)
H5N H -0.3081(9) 0.0967(9) -0.3996(8)
H6N H -0.2312(9) 0.1102(9) -0.3397(8)
H7N H -0.2243(9) 0.0477(9) -0.4155(8)
#END

data_CSD_CIF_KABBOE
_audit_creation_date 1989-07-19
_audit_creation_method CSD-ConQuest-V1
_database_code_CSD KABBOE
_chemical_formula_sum 'C50 H48 Au2 P2'
_chemical_formula_moiety
;
C44 H42 Au2 P2,C6 H6
;
_journal_coden_Cambridge 36
_journal_volume 344
_journal_year 1988
_journal_page_first C49
_journal_name_full 'J.Organomet.Chem. '
loop_
_publ_author_name
"M.I.Bruce"
"K.R.Grundy"
"M.J.Liddell"
"M.R.Snow"
"E.R.T.Tiekink"
_chemical_name_systematic
;
(\m~2~-Acetylene)-bis(tri-m-tolylphosphine-gold) benzene clathrate
;
_cell_volume   4257.830
_exptl_crystal_density_diffrn 1.724
_exptl_special_details
;
Isomorphous with the triphenylphosphine analogue and tri- m-tolylphosphine 
non-solvated analogue
;
_diffrn_ambient_temperature ?
_diffrn_special_details
;
The study was carried out at room temperature,in the range 283-303K

;
#These two values have been output from a single CSD field.
_refine_ls_R_factor_gt 0.02
_refine_ls_wR_factor_gt 0.02
_symmetry_cell_setting cubic
_symmetry_space_group_name_H-M 'P a 3'
_symmetry_Int_Tables_number 205
loop_
_symmetry_equiv_pos_site_id
_symmetry_equiv_pos_as_xyz
1 x,y,z
2 z,x,y
3 y,z,x
4 1/2+x,y,1/2-z
5 1/2+z,x,1/2-y
6 1/2+y,z,1/2-x
7 1/2-x,1/2+y,z
8 1/2-z,1/2+x,y
9 1/2-y,1/2+z,x
10 -x,1/2+y,1/2-z
11 -z,1/2+x,1/2-y
12 -y,1/2+z,1/2-x
13 -x,-y,-z
14 -z,-x,-y
15 -y,-z,-x
16 -1/2-x,-y,-1/2+z
17 -1/2-z,-x,-1/2+y
18 -1/2-y,-z,-1/2+x
19 -1/2+x,-1/2-y,-z
20 -1/2+z,-1/2-x,-y
21 -1/2+y,-1/2-z,-x
22 x,-1/2-y,-1/2+z
23 z,-1/2-x,-1/2+y
24 y,-1/2-z,-1/2+x
_cell_length_a 16.208(5)
_cell_length_b 16.208(5)
_cell_length_c 16.208(5)
_cell_angle_alpha 90
_cell_angle_beta 90
_cell_angle_gamma 90
_cell_formula_units_Z 4
loop_
_atom_type_symbol
_atom_type_radius_bond
C 0.68
H 0.23
Au 1.50
P 1.05
loop_
_atom_site_label
_atom_site_type_symbol
_atom_site_fract_x
_atom_site_fract_y
_atom_site_fract_z
Au1 Au 0.09257(1) 0.09257(1) 0.09257(1)
P1 P 0.1739(1) 0.1739(1) 0.1739(1)
C1 C 0.0212(3) 0.0212(3) 0.0212(3)
C2 C 0.2530(3) 0.1164(4) 0.2285(4)
C3 C 0.3364(4) 0.1371(4) 0.2261(4)
C4 C 0.3917(5) 0.0913(4) 0.2698(5)
C5 C 0.3664(4) 0.0250(5) 0.3183(5)
C6 C 0.2844(4) 0.0056(5) 0.3228(4)
C7 C 0.2277(4) 0.0492(4) 0.2768(4)
C8 C 0.2543(6) -0.0640(6) 0.3777(5)
C9 C -0.0010(8) 0.0614(6) 0.4371(7)
H1 H 0.3333(4) 0.1840(4) 0.1891(4)
H2 H 0.4446(5) 0.1161(4) 0.2567(5)
H3 H 0.4163(4) 0.0035(5) 0.3432(5)
H4 H 0.1691(4) 0.0513(4) 0.2647(4)
H5 H 0.3010(6) -0.0885(6) 0.4061(5)
H6 H 0.2267(6) -0.1058(6) 0.3450(5)
H7 H 0.2161(6) -0.0416(6) 0.4180(5)
C2A C 0.2285(3) 0.2530(4) 0.1164(4)
C2B C 0.1164(3) 0.2285(4) 0.2530(4)
C1L C -0.0212(3) -0.0212(3) -0.0212(3)
C3A C 0.2261(4) 0.3364(4) 0.1371(4)
C7A C 0.2768(4) 0.2277(4) 0.0492(4)
C3B C 0.1371(4) 0.2261(4) 0.3364(4)
C7B C 0.0492(4) 0.2768(4) 0.2277(4)
Au1L Au -0.09257(1) -0.09257(1) -0.09257(1)
C4A C 0.2698(5) 0.3917(4) 0.0913(5)
H1A H 0.1891(4) 0.3333(4) 0.1840(4)
C6A C 0.3228(4) 0.2844(5) 0.0056(4)
H4A H 0.2647(4) 0.1691(4) 0.0513(4)
C4B C 0.0913(5) 0.2698(4) 0.3917(5)
H1B H 0.1840(4) 0.1891(4) 0.3333(4)
C6B C 0.0056(4) 0.3228(5) 0.2844(4)
H4B H 0.0513(4) 0.2647(4) 0.1691(4)
P1L P -0.1739(1) -0.1739(1) -0.1739(1)
C5A C 0.3183(4) 0.3664(5) 0.0250(5)
H2A H 0.2567(5) 0.4446(4) 0.1161(5)
C8A C 0.3777(6) 0.2543(6) -0.0640(5)
C5B C 0.0250(4) 0.3183(5) 0.3664(5)
H2B H 0.1161(5) 0.2567(4) 0.4446(5)
C8B C -0.0640(6) 0.3777(6) 0.2543(5)
C2L C -0.2530(3) -0.1164(4) -0.2285(4)
C2M C -0.2285(3) -0.2530(4) -0.1164(4)
C2N C -0.1164(3) -0.2285(4) -0.2530(4)
H3A H 0.3432(4) 0.4163(5) 0.0035(5)
H5A H 0.4061(6) 0.3010(6) -0.0885(5)
H6A H 0.3450(6) 0.2267(6) -0.1058(5)
H7A H 0.4180(6) 0.2161(6) -0.0416(5)
H3B H 0.0035(4) 0.3432(5) 0.4163(5)
H5B H -0.0885(6) 0.4061(6) 0.3010(5)
H6B H -0.1058(6) 0.3450(6) 0.2267(5)
H7B H -0.0416(6) 0.4180(6) 0.2161(5)
C3L C -0.3364(4) -0.1371(4) -0.2261(4)
C7L C -0.2277(4) -0.0492(4) -0.2768(4)
C3M C -0.2261(4) -0.3364(4) -0.1371(4)
C7M C -0.2768(4) -0.2277(4) -0.0492(4)
C3N C -0.1371(4) -0.2261(4) -0.3364(4)
C7N C -0.0492(4) -0.2768(4) -0.2277(4)
C4L C -0.3917(5) -0.0913(4) -0.2698(5)
H1L H -0.3333(4) -0.1840(4) -0.1891(4)
C6L C -0.2844(4) -0.0056(5) -0.3228(4)
H4L H -0.1691(4) -0.0513(4) -0.2647(4)
C4M C -0.2698(5) -0.3917(4) -0.0913(5)
H1M H -0.1891(4) -0.3333(4) -0.1840(4)
C6M C -0.3228(4) -0.2844(5) -0.0056(4)
H4M H -0.2647(4) -0.1691(4) -0.0513(4)
C4N C -0.0913(5) -0.2698(4) -0.3917(5)
H1N H -0.1840(4) -0.1891(4) -0.3333(4)
C6N C -0.0056(4) -0.3228(5) -0.2844(4)
H4N H -0.0513(4) -0.2647(4) -0.1691(4)
C5L C -0.3664(4) -0.0250(5) -0.3183(5)
H2L H -0.4446(5) -0.1161(4) -0.2567(5)
C8L C -0.2543(6) 0.0640(6) -0.3777(5)
C5M C -0.3183(4) -0.3664(5) -0.0250(5)
H2M H -0.2567(5) -0.4446(4) -0.1161(5)
C8M C -0.3777(6) -0.2543(6) 0.0640(5)
C5N C -0.0250(4) -0.3183(5) -0.3664(5)
H2N H -0.1161(5) -0.2567(4) -0.4446(5)
C8N C 0.0640(6) -0.3777(6) -0.2543(5)
H3L H -0.4163(4) -0.0035(5) -0.3432(5)
H5L H -0.3010(6) 0.0885(6) -0.4061(5)
H6L H -0.2267(6) 0.1058(6) -0.3450(5)
H7L H -0.2161(6) 0.0416(6) -0.4180(5)
H3M H -0.3432(4) -0.4163(5) -0.0035(5)
H5M H -0.4061(6) -0.3010(6) 0.0885(5)
H6M H -0.3450(6) -0.2267(6) 0.1058(5)
H7M H -0.4180(6) -0.2161(6) 0.0416(5)
H3N H -0.0035(4) -0.3432(5) -0.4163(5)
H5N H 0.0885(6) -0.4061(6) -0.3010(5)
H6N H 0.1058(6) -0.3450(6) -0.2267(5)
H7N H 0.0416(6) -0.4180(6) -0.2161(5)
C9D C -0.0629(8) -0.0010(6) 0.4386(7)
C9W C 0.0614(8) 0.0629(6) 0.4990(7)
C9K C -0.0614(8) -0.0629(6) 0.5010(7)
C9P C 0.0629(8) 0.0010(6) 0.5614(7)
C9L C 0.0010(8) -0.0614(6) 0.5629(7)
#END

data_CSD_CIF_KARFEP
_audit_creation_date 2005-11-01
_audit_creation_method CSD-ConQuest-V1
_database_code_CSD KARFEP
_database_code_depnum_ccdc_archive 'CCDC 228094'
_chemical_formula_sum 'C90 H75 Cd3 N6 O19.5'
_chemical_formula_moiety
;
C90 H72 Cd3 N6 O18,1.5(H2 O1)
;
_journal_coden_Cambridge 1350
_journal_volume 7
_journal_year 2005
_journal_page_first 411
_journal_name_full 'CrystEngComm '
loop_
_publ_author_name
"Xian-He Bu"
"Ming-Liang Tong"
"Jian-Rong Li"
"Ho-Chol Chang"
"Li-Jun Li"
"S.Kitagawa"
_chemical_name_systematic
;
hexakis(\m~2~-9-acridinecarboxylato)-hexakis(methanol)-cadmium(ii) 
sesquihydrate
;
_cell_volume   8417.458
_exptl_crystal_colour 'colorless'
_exptl_crystal_density_diffrn 1.491
_exptl_special_details
;
isostructural with the Zn and Cd-ethanol analogues

;
_exptl_crystal_description 'Cubic'
_diffrn_ambient_temperature 293
#These two values have been output from a single CSD field.
_refine_ls_R_factor_gt 0.0318
_refine_ls_wR_factor_gt 0.0318
_symmetry_cell_setting cubic
_symmetry_space_group_name_H-M 'P a -3'
_symmetry_Int_Tables_number 205
loop_
_symmetry_equiv_pos_site_id
_symmetry_equiv_pos_as_xyz
1 x,y,z
2 z,x,y
3 y,z,x
4 1/2-x,-y,1/2+z
5 -x,1/2+y,1/2-z
6 1/2+x,1/2-y,-z
7 1/2+z,1/2-x,-y
8 1/2-z,-x,1/2+y
9 -z,1/2+x,1/2-y
10 -y,1/2+z,1/2-x
11 1/2+y,1/2-z,-x
12 1/2-y,-z,1/2+x
13 -x,-y,-z
14 -z,-x,-y
15 -y,-z,-x
16 -1/2+x,y,-1/2-z
17 x,-1/2-y,-1/2+z
18 -1/2-x,-1/2+y,z
19 -1/2-z,-1/2+x,y
20 -1/2+z,x,-1/2-y
21 z,-1/2-x,-1/2+y
22 y,-1/2-z,-1/2+x
23 -1/2-y,-1/2+z,x
24 -1/2+y,z,-1/2-x
_cell_length_a 20.3420(5)
_cell_length_b 20.3420(5)
_cell_length_c 20.3420(5)
_cell_angle_alpha 90
_cell_angle_beta 90
_cell_angle_gamma 90
_cell_formula_units_Z 4
loop_
_atom_type_symbol
_atom_type_radius_bond
C 0.68
H 0.23
Cd 1.69
N 0.68
O 0.68
loop_
_atom_site_label
_atom_site_type_symbol
_atom_site_fract_x
_atom_site_fract_y
_atom_site_fract_z
Cd1 Cd 0.120346(9) 0.620346(9) 0.879654(9)
Cd2 Cd 0.00000 0.50000 1.00000
O1 O 0.02072(10) 0.60256(12) 0.83911(11)
O2 O -0.01661(11) 0.51297(11) 0.89095(10)
O3 O 0.10180(11) 0.72561(10) 0.83865(10)
H1 H 0.13110 0.74360 0.80860
N1 N -0.20716(12) 0.60008(14) 0.75683(13)
C1 C -0.02230(13) 0.56165(14) 0.85431(13)
C2 C -0.08818(13) 0.57359(14) 0.82176(13)
C3 C -0.10458(14) 0.53886(14) 0.76487(14)
C4 C -0.06333(16) 0.49007(15) 0.73623(16)
H2 H -0.02380 0.47920 0.75650
C5 C -0.08080(18) 0.45947(18) 0.68009(18)
H3 H -0.05300 0.42820 0.66160
C6 C -0.1418(2) 0.4748(2) 0.64884(19)
H4 H -0.15340 0.45310 0.61030
C7 C -0.18249(18) 0.51985(19) 0.67436(17)
H5 H -0.22210 0.52890 0.65350
C8 C -0.16562(14) 0.55412(15) 0.73335(15)
C9 C -0.19060(14) 0.63309(15) 0.81145(15)
C10 C -0.23384(16) 0.68334(17) 0.83524(18)
H6 H -0.27320 0.69150 0.81340
C11 C -0.21826(18) 0.71875(19) 0.88864(19)
H7 H -0.24620 0.75220 0.90250
C12 C -0.15943(18) 0.70586(18) 0.92441(18)
H8 H -0.14990 0.73020 0.96190
C13 C -0.11743(15) 0.65843(17) 0.90427(16)
H9 H -0.07940 0.65020 0.92830
C14 C -0.13075(14) 0.62107(14) 0.84680(15)
C15 C 0.0464(2) 0.76263(19) 0.8589(2)
H10 H 0.04640 0.80430 0.83690
H11 H 0.04830 0.76950 0.90560
H12 H 0.00700 0.73910 0.84810
O4 O -0.1122(6) 0.8878(6) 0.8878(6)
O5 O 0.00000 0.50000 0.50000
Cd1T Cd -0.120346(9) 0.379654(9) 1.120346(9)
O1T O -0.16089(10) 0.47928(12) 1.10256(11)
O1V O -0.10256(10) 0.33911(12) 1.02072(11)
O1L O -0.02072(10) 0.39744(12) 1.16089(11)
O1H O 0.16089(10) 0.52072(12) 0.89744(11)
O1J O 0.10256(10) 0.66089(12) 0.97928(11)
O2T O -0.10905(11) 0.51661(11) 1.01297(10)
O2V O -0.01297(11) 0.39095(11) 0.98339(10)
O2L O 0.01661(11) 0.48703(11) 1.10905(10)
O2H O 0.10905(11) 0.48339(11) 0.98703(10)
O2J O 0.01297(11) 0.60905(11) 1.01661(10)
O3T O -0.16135(11) 0.3982(1) 1.22561(10)
O3V O -0.22561(11) 0.33865(10) 1.1018(1)
O3L O -0.10180(11) 0.27439(10) 1.16135(10)
O3H O 0.16135(11) 0.6018(1) 0.77439(10)
O3J O 0.22561(11) 0.66135(10) 0.8982(1)
H1T H -0.19140 0.36890 1.24360
H1V H -0.24360 0.30860 1.13110
H1L H -0.13110 0.25640 1.19140
H1H H 0.19140 0.63110 0.75640
H1J H 0.24360 0.69140 0.86890
N1L N 0.20716(12) 0.39992(14) 1.24317(13)
N1J N 0.10008(12) 0.74317(14) 1.20716(13)
N1H N 0.24317(12) 0.29284(14) 0.89992(13)
N1V N -0.10008(12) 0.25683(14) 0.79284(13)
N1T N -0.24317(12) 0.70716(14) 1.10008(13)
C1T C -0.14569(13) 0.52230(14) 1.06165(13)
C1V C -0.06165(13) 0.35431(14) 0.97770(13)
C1L C 0.02230(13) 0.43835(14) 1.14569(13)
C1H C 0.14569(13) 0.47770(14) 0.93835(13)
C1J C 0.06165(13) 0.64569(14) 1.02230(13)
C2L C 0.08818(13) 0.42641(14) 1.17824(13)
C2J C 0.07359(13) 0.67824(14) 1.08818(13)
C2H C 0.17824(13) 0.41182(14) 0.92641(13)
C2V C -0.07359(13) 0.32176(14) 0.91182(13)
C2T C -0.17824(13) 0.58818(14) 1.07359(13)
C3L C 0.10458(14) 0.46114(14) 1.23513(14)
C3J C 0.03886(14) 0.73513(14) 1.10458(14)
C3H C 0.23513(14) 0.39542(14) 0.96114(14)
C3V C -0.03886(14) 0.26487(14) 0.89542(14)
C3T C -0.23513(14) 0.60458(14) 1.03886(14)
C4L C 0.06333(16) 0.50993(15) 1.26377(16)
C4J C -0.00993(16) 0.76377(15) 1.06333(16)
C4H C 0.26377(16) 0.43667(15) 1.00993(16)
C4V C 0.00993(16) 0.23623(15) 0.93667(16)
C4T C -0.26377(16) 0.56333(15) 0.99007(16)
H2L H 0.02380 0.52080 1.24350
H2J H -0.02080 0.74350 1.02380
H2H H 0.24350 0.47620 1.02080
H2V H 0.02080 0.25650 0.97620
H2T H -0.24350 0.52380 0.97920
C5L C 0.08080(18) 0.54053(18) 1.31991(18)
C5J C -0.04053(18) 0.81991(18) 1.08080(18)
C5H C 0.31991(18) 0.41920(18) 1.04053(18)
C5V C 0.04053(18) 0.18009(18) 0.91920(18)
C5T C -0.31991(18) 0.58080(18) 0.95947(18)
H3L H 0.05300 0.57180 1.33840
H3J H -0.07180 0.83840 1.05300
H3H H 0.33840 0.44700 1.07180
H3V H 0.07180 0.16160 0.94700
H3T H -0.33840 0.55300 0.92820
C6L C 0.1418(2) 0.5252(2) 1.35116(19)
C6J C -0.0252(2) 0.85116(20) 1.14180(19)
C6H C 0.35116(20) 0.3582(2) 1.02520(19)
C6V C 0.0252(2) 0.14884(20) 0.85820(19)
C6T C -0.35116(20) 0.6418(2) 0.97480(19)
H4L H 0.15340 0.54690 1.38970
H4J H -0.04690 0.88970 1.15340
H4H H 0.38970 0.34660 1.04690
H4V H 0.04690 0.11030 0.84660
H4T H -0.38970 0.65340 0.95310
C7L C 0.18249(18) 0.48015(19) 1.32564(17)
C7J C 0.01985(18) 0.82564(19) 1.18249(17)
C7H C 0.32564(18) 0.31751(19) 0.98015(17)
C7V C -0.01985(18) 0.17436(19) 0.81751(17)
C7T C -0.32564(18) 0.68249(19) 1.01985(17)
H5L H 0.22210 0.47110 1.34650
H5J H 0.02890 0.84650 1.22210
H5H H 0.34650 0.27790 0.97110
H5V H -0.02890 0.15350 0.77790
H5T H -0.34650 0.72210 1.02890
C8L C 0.16562(14) 0.44588(15) 1.26665(15)
C8J C 0.05412(14) 0.76665(15) 1.16562(15)
C8H C 0.26665(14) 0.33438(15) 0.94588(15)
C8V C -0.05412(14) 0.23335(15) 0.83438(15)
C8T C -0.26665(14) 0.66562(15) 1.05412(15)
C9L C 0.19060(14) 0.36691(15) 1.18855(15)
C9J C 0.13309(14) 0.68855(15) 1.19060(15)
C9H C 0.18855(14) 0.30940(15) 0.86691(15)
C9V C -0.13309(14) 0.31145(15) 0.80940(15)
C9T C -0.18855(14) 0.69060(15) 1.13309(15)
C10L C 0.23384(16) 0.31666(17) 1.16476(18)
C10J C 0.18334(16) 0.66476(17) 1.23384(18)
C10H C 0.16476(16) 0.26616(17) 0.81666(18)
C10V C -0.18334(16) 0.33524(17) 0.76616(18)
C10T C -0.16476(16) 0.73384(17) 1.18334(18)
H6L H 0.27320 0.30850 1.18660
H6J H 0.19150 0.68660 1.27320
H6H H 0.18660 0.22680 0.80850
H6V H -0.19150 0.31340 0.72680
H6T H -0.18660 0.77320 1.19150
C11L C 0.21826(18) 0.28125(19) 1.11136(19)
C11J C 0.21875(18) 0.61136(19) 1.21826(19)
C11H C 0.11136(18) 0.28174(19) 0.78125(19)
C11V C -0.21875(18) 0.38864(19) 0.78174(19)
C11T C -0.11136(18) 0.71826(19) 1.21875(19)
H7L H 0.24620 0.24780 1.09750
H7J H 0.25220 0.59750 1.24620
H7H H 0.09750 0.25380 0.74780
H7V H -0.25220 0.40250 0.75380
H7T H -0.09750 0.74620 1.25220
C12L C 0.15943(18) 0.29414(18) 1.07559(18)
C12J C 0.20586(18) 0.57559(18) 1.15943(18)
C12H C 0.07559(18) 0.34057(18) 0.79414(18)
C12V C -0.20586(18) 0.42441(18) 0.84057(18)
C12T C -0.07559(18) 0.65943(18) 1.20586(18)
H8L H 0.14990 0.26980 1.03810
H8J H 0.23020 0.53810 1.14990
H8H H 0.03810 0.35010 0.76980
H8V H -0.23020 0.46190 0.85010
H8T H -0.03810 0.64990 1.23020
C13L C 0.11743(15) 0.34157(17) 1.09573(16)
C13J C 0.15843(15) 0.59573(17) 1.11743(16)
C13H C 0.09573(15) 0.38257(17) 0.84157(16)
C13V C -0.15843(15) 0.40427(17) 0.88257(16)
C13T C -0.09573(15) 0.61743(17) 1.15843(16)
H9L H 0.07940 0.34980 1.07170
H9J H 0.15020 0.57170 1.07940
H9H H 0.07170 0.42060 0.84980
H9V H -0.15020 0.42830 0.92060
H9T H -0.07170 0.57940 1.15020
C14L C 0.13075(14) 0.37893(14) 1.15320(15)
C14J C 0.12107(14) 0.65320(14) 1.13075(15)
C14H C 0.15320(14) 0.36925(14) 0.87893(15)
C14V C -0.12107(14) 0.34680(14) 0.86925(15)
C14T C -0.15320(14) 0.63075(14) 1.12107(15)
C15T C -0.1411(2) 0.45360(19) 1.26263(20)
C15V C -0.26263(20) 0.35890(19) 1.0464(2)
C15L C -0.0464(2) 0.23737(19) 1.1411(2)
C15H C 0.1411(2) 0.54640(19) 0.73737(20)
C15J C 0.26263(20) 0.64110(19) 0.9536(2)
H10T H -0.16310 0.45360 1.30430
H10V H -0.30430 0.33690 1.04640
H10L H -0.04640 0.19570 1.16310
H10H H 0.16310 0.54640 0.69570
H10J H 0.30430 0.66310 0.95360
H11T H -0.09440 0.45170 1.26950
H11V H -0.26950 0.40560 1.04830
H11L H -0.04830 0.23050 1.09440
H11H H 0.09440 0.54830 0.73050
H11J H 0.26950 0.59440 0.95170
H12T H -0.15190 0.49300 1.23910
H12V H -0.23910 0.34810 1.00700
H12L H -0.00700 0.26090 1.15190
H12H H 0.15190 0.50700 0.76090
H12J H 0.23910 0.65190 0.99300
#END

data_CSD_CIF_KAXQUW
_audit_creation_date 2006-02-03
_audit_creation_method CSD-ConQuest-V1
_database_code_CSD KAXQUW
_database_code_depnum_ccdc_archive 'CCDC 274747'
_chemical_formula_sum 'C36 H32 Cl6 P2 Tc1'
_chemical_formula_moiety
;
2(C18 H16 P1 1+),Cl6 Tc1 2-
;
_journal_coden_Cambridge 29
_journal_volume 631
_journal_year 2005
_journal_page_first 2303
_journal_name_full 'Z.Anorg.Allg.Chem. '
loop_
_publ_author_name
"A.Hagenbach"
"U.Abram"
_chemical_name_systematic
;
bis(Triphenylphosphonium) hexachloro-technetium(iv)
;
_cell_volume   4892.221
_exptl_crystal_colour 'yellow'
_exptl_crystal_density_diffrn 1.137
_exptl_crystal_description 'cube'
_diffrn_ambient_temperature 273
#These two values have been output from a single CSD field.
_refine_ls_R_factor_gt 0.0446
_refine_ls_wR_factor_gt 0.0446
_symmetry_cell_setting cubic
_symmetry_space_group_name_H-M 'P a -3'
_symmetry_Int_Tables_number 205
loop_
_symmetry_equiv_pos_site_id
_symmetry_equiv_pos_as_xyz
1 x,y,z
2 z,x,y
3 y,z,x
4 1/2-x,-y,1/2+z
5 1/2+x,1/2-y,-z
6 -x,1/2+y,1/2-z
7 1/2-z,-x,1/2+y
8 1/2+z,1/2-x,-y
9 -z,1/2+x,1/2-y
10 1/2+y,1/2-z,-x
11 -y,1/2+z,1/2-x
12 1/2-y,-z,1/2+x
13 -x,-y,-z
14 -z,-x,-y
15 -y,-z,-x
16 -1/2+x,y,-1/2-z
17 -1/2-x,-1/2+y,z
18 x,-1/2-y,-1/2+z
19 -1/2+z,x,-1/2-y
20 -1/2-z,-1/2+x,y
21 z,-1/2-x,-1/2+y
22 -1/2-y,-1/2+z,x
23 y,-1/2-z,-1/2+x
24 -1/2+y,z,-1/2-x
_cell_length_a 16.976(3)
_cell_length_b 16.976(3)
_cell_length_c 16.976(3)
_cell_angle_alpha 90
_cell_angle_beta 90
_cell_angle_gamma 90
_cell_formula_units_Z 4
loop_
_atom_type_symbol
_atom_type_radius_bond
C 0.68
H 0.23
Cl 0.99
P 1.05
Tc 1.35
loop_
_atom_site_label
_atom_site_type_symbol
_atom_site_fract_x
_atom_site_fract_y
_atom_site_fract_z
Tc1 Tc 0.50000 0.00000 0.00000
Cl1 Cl 0.5423(4) 0.0308(4) 0.1284(3)
P1 P 0.6567(4) -0.1567(4) 0.1567(4)
C1 C 0.5968(16) -0.1937(17) 0.2348(15)
C2 C 0.535(2) -0.150(2) 0.262(2)
C3 C 0.490(2) -0.177(3) 0.324(2)
C4 C 0.507(2) -0.247(3) 0.359(2)
C5 C 0.569(3) -0.291(2) 0.333(3)
C6 C 0.613(2) -0.2657(18) 0.271(2)
H1 H 0.606(17) -0.106(17) 0.106(17)
H2 H 0.52(3) -0.10(3) 0.24(3)
H3 H 0.45(3) -0.15(4) 0.35(4)
H4 H 0.48(4) -0.27(4) 0.40(5)
H5 H 0.57(2) -0.34(3) 0.35(3)
H6 H 0.65(2) -0.30(2) 0.26(2)
Cl1S Cl 0.3716(4) 0.0423(4) 0.0308(3)
Cl1W Cl 0.5308(4) 0.1284(4) -0.0423(3)
Cl1L Cl 0.4577(4) -0.0308(4) -0.1284(3)
Cl1G Cl 0.6284(4) -0.0423(4) -0.0308(3)
Cl1K Cl 0.4692(4) -0.1284(4) 0.0423(3)
C1G C 0.7348(16) -0.0968(17) 0.1937(15)
C1K C 0.6937(16) -0.2348(17) 0.0968(15)
C2G C 0.762(2) -0.035(2) 0.150(2)
C2K C 0.650(2) -0.262(2) 0.035(2)
C3G C 0.824(2) 0.010(3) 0.177(2)
C3K C 0.677(2) -0.324(3) -0.010(2)
C4G C 0.859(2) -0.007(3) 0.247(2)
C4K C 0.747(2) -0.359(3) 0.007(2)
C5G C 0.833(3) -0.069(2) 0.291(3)
C5K C 0.791(3) -0.333(2) 0.069(3)
C6G C 0.771(2) -0.1130(18) 0.2657(20)
C6K C 0.7657(20) -0.2710(18) 0.113(2)
H2G H 0.74(3) -0.02(3) 0.10(3)
H2K H 0.60(3) -0.24(3) 0.02(3)
H3G H 0.85(3) 0.05(4) 0.15(4)
H3K H 0.65(3) -0.35(4) -0.05(4)
H4G H 0.90(4) 0.02(4) 0.27(5)
H4K H 0.77(4) -0.40(4) -0.02(5)
H5G H 0.85(2) -0.07(3) 0.34(3)
H5K H 0.84(2) -0.35(3) 0.07(3)
H6G H 0.76(2) -0.15(2) 0.30(2)
H6K H 0.80(2) -0.26(2) 0.15(2)
#END

data_CSD_CIF_KEBTIX
_audit_creation_date 2017-07-26
_audit_creation_method CSD-ConQuest-V1
_database_code_CSD KEBTIX
_database_code_depnum_ccdc_archive 'CCDC 1564937'
_chemical_formula_sum 'C48 H60 Fe1 N3 Nb1 P4'
_chemical_formula_moiety
;
C48 H60 Fe1 N3 Nb1 P4
;
_journal_coden_Cambridge 4
_journal_volume 139
_journal_year 2017
_journal_page_first 9627
_journal_name_full 'J.Am.Chem.Soc. '
loop_
_publ_author_name
"G.Culcu"
"D.A.Iovan"
"J.P.Krogman"
"M.J.T.Wilding"
"M.W.Bezpalko"
"B.M.Foxman"
"C.M.Thomas"
_chemical_name_systematic
;
tris[\m-(P,P-diphenyl-N-propan-2-ylphosphinous 
amidato)]-trimethylphosphine-iron-niobium
;
_cell_volume   9495.267
_exptl_crystal_colour 'red'
_exptl_crystal_density_diffrn 1.331
_exptl_crystal_description 'prism'
_diffrn_ambient_temperature 120
#These two values have been output from a single CSD field.
_refine_ls_R_factor_gt 0.0337
_refine_ls_wR_factor_gt 0.0337
_symmetry_cell_setting cubic
_symmetry_space_group_name_H-M 'P a -3'
_symmetry_Int_Tables_number 205
loop_
_symmetry_equiv_pos_site_id
_symmetry_equiv_pos_as_xyz
1 x,y,z
2 y,z,x
3 z,x,y
4 1/2-x,-y,1/2+z
5 1/2-y,-z,1/2+x
6 1/2-z,-x,1/2+y
7 1/2+y,1/2-z,-x
8 1/2+z,1/2-x,-y
9 -z,1/2+x,1/2-y
10 -x,1/2+y,1/2-z
11 -y,1/2+z,1/2-x
12 1/2+x,1/2-y,-z
13 -x,-y,-z
14 -y,-z,-x
15 -z,-x,-y
16 -1/2+x,y,-1/2-z
17 -1/2+y,z,-1/2-x
18 -1/2+z,x,-1/2-y
19 -1/2-y,-1/2+z,x
20 -1/2-z,-1/2+x,y
21 z,-1/2-x,-1/2+y
22 x,-1/2-y,-1/2+z
23 y,-1/2-z,-1/2+x
24 -1/2-x,-1/2+y,z
_cell_length_a 21.1756(7)
_cell_length_b 21.1756(7)
_cell_length_c 21.1756(7)
_cell_angle_alpha 90
_cell_angle_beta 90
_cell_angle_gamma 90
_cell_formula_units_Z 8
loop_
_atom_type_symbol
_atom_type_radius_bond
C 0.68
H 0.23
Fe 1.52
N 0.68
Nb 1.64
P 1.05
loop_
_atom_site_label
_atom_site_type_symbol
_atom_site_fract_x
_atom_site_fract_y
_atom_site_fract_z
Nb1 Nb 0.607513(11) 0.607513(11) 0.607513(11)
Fe1 Fe 0.665986(17) 0.665986(17) 0.665986(17)
P1 P 0.66005(3) 0.71952(3) 0.57676(3)
P2 P 0.72833(3) 0.72833(3) 0.72833(3)
N1 N 0.61565(10) 0.66873(10) 0.53344(10)
C1 C 0.61673(13) 0.79479(12) 0.57191(12)
C2 C 0.55076(13) 0.79440(14) 0.57276(13)
C3 C 0.51661(14) 0.85017(14) 0.57560(13)
C4 C 0.54809(15) 0.90752(14) 0.57800(13)
C5 C 0.61328(15) 0.90922(13) 0.57732(13)
C6 C 0.64736(14) 0.85345(13) 0.57383(13)
C7 C 0.73274(13) 0.74043(12) 0.53331(13)
C8 C 0.73302(14) 0.77290(14) 0.47567(13)
C9 C 0.78970(15) 0.78808(15) 0.44675(14)
C10 C 0.84661(15) 0.77137(15) 0.47424(15)
C11 C 0.84706(14) 0.73978(14) 0.53136(15)
C12 C 0.79052(13) 0.72447(13) 0.55995(14)
C13 C 0.59003(13) 0.67745(13) 0.46944(13)
C14 C 0.52195(14) 0.65469(17) 0.46613(15)
C15 C 0.62979(15) 0.64200(14) 0.42162(13)
C16 C 0.74865(14) 0.80770(13) 0.70072(14)
H1 H 0.52960 0.75560 0.57150
H2 H 0.47220 0.84840 0.57720
H3 H 0.52500 0.94480 0.57980
H4 H 0.63450 0.94790 0.57910
H5 H 0.69170 0.85430 0.57250
H6 H 0.69510 0.78510 0.45720
H7 H 0.78970 0.81070 0.40900
H8 H 0.88420 0.78190 0.45470
H9 H 0.88530 0.72840 0.54980
H10 H 0.79030 0.70340 0.59880
H11 H 0.59150 0.72210 0.45930
H12 H 0.52070 0.61000 0.47640
H13 H 0.50480 0.66070 0.42460
H14 H 0.49690 0.67760 0.49630
H15 H 0.67420 0.65440 0.42390
H16 H 0.62840 0.59740 0.43140
H17 H 0.61410 0.64810 0.37920
H18 H 0.71030 0.83200 0.69360
H19 H 0.77120 0.80490 0.66170
H20 H 0.77460 0.82930 0.73080
C16A C 0.80770(14) 0.70072(13) 0.74865(14)
H18A H 0.83200 0.69360 0.71030
H19A H 0.80490 0.66170 0.77120
H20A H 0.82930 0.73080 0.77460
C16B C 0.70072(14) 0.74865(13) 0.80770(14)
H18B H 0.69360 0.71030 0.83200
H19B H 0.66170 0.77120 0.80490
H20B H 0.73080 0.77460 0.82930
P1A P 0.71952(3) 0.57676(3) 0.66005(3)
N1A N 0.66873(10) 0.53344(10) 0.61565(10)
C1A C 0.79479(13) 0.57191(12) 0.61673(12)
C2A C 0.79440(13) 0.57276(14) 0.55076(13)
C3A C 0.85017(14) 0.57560(14) 0.51661(13)
C4A C 0.90752(15) 0.57800(14) 0.54809(13)
C5A C 0.90922(15) 0.57732(13) 0.61328(13)
C6A C 0.85345(14) 0.57383(13) 0.64736(13)
C7A C 0.74043(13) 0.53331(12) 0.73274(13)
C8A C 0.77290(14) 0.47567(14) 0.73302(13)
C9A C 0.78808(15) 0.44675(15) 0.78970(14)
C10A C 0.77137(15) 0.47424(15) 0.84661(15)
C11A C 0.73978(14) 0.53136(14) 0.84706(15)
C12A C 0.72447(13) 0.55995(13) 0.79052(14)
C13A C 0.67745(13) 0.46944(13) 0.59003(13)
C14A C 0.65469(14) 0.46613(17) 0.52195(15)
C15A C 0.64200(15) 0.42162(14) 0.62979(13)
H1A H 0.75560 0.57150 0.52960
H2A H 0.84840 0.57720 0.47220
H3A H 0.94480 0.57980 0.52500
H4A H 0.94790 0.57910 0.63450
H5A H 0.85430 0.57250 0.69170
H6A H 0.78510 0.45720 0.69510
H7A H 0.81070 0.40900 0.78970
H8A H 0.78190 0.45470 0.88420
H9A H 0.72840 0.54980 0.88530
H10A H 0.70340 0.59880 0.79030
H11A H 0.72210 0.45930 0.59150
H12A H 0.61000 0.47640 0.52070
H13A H 0.66070 0.42460 0.50480
H14A H 0.67760 0.49630 0.49690
H15A H 0.65440 0.42390 0.67420
H16A H 0.59740 0.43140 0.62840
H17A H 0.64810 0.37920 0.61410
P1B P 0.57676(3) 0.66005(3) 0.71952(3)
N1B N 0.53344(10) 0.61565(10) 0.66873(10)
C1B C 0.57191(13) 0.61673(12) 0.79479(12)
C2B C 0.57276(13) 0.55076(14) 0.79440(13)
C3B C 0.57560(14) 0.51661(14) 0.85017(13)
C4B C 0.57800(15) 0.54809(14) 0.90752(13)
C5B C 0.57732(15) 0.61328(13) 0.90922(13)
C6B C 0.57383(14) 0.64736(13) 0.85345(13)
C7B C 0.53331(13) 0.73274(12) 0.74043(13)
C8B C 0.47567(14) 0.73302(14) 0.77290(13)
C9B C 0.44675(15) 0.78970(15) 0.78808(14)
C10B C 0.47424(15) 0.84661(15) 0.77137(15)
C11B C 0.53136(14) 0.84706(14) 0.73978(15)
C12B C 0.55995(13) 0.79052(13) 0.72447(14)
C13B C 0.46944(13) 0.59003(13) 0.67745(13)
C14B C 0.46613(14) 0.52195(17) 0.65469(15)
C15B C 0.42162(15) 0.62979(14) 0.64200(13)
H1B H 0.57150 0.52960 0.75560
H2B H 0.57720 0.47220 0.84840
H3B H 0.57980 0.52500 0.94480
H4B H 0.57910 0.63450 0.94790
H5B H 0.57250 0.69170 0.85430
H6B H 0.45720 0.69510 0.78510
H7B H 0.40900 0.78970 0.81070
H8B H 0.45470 0.88420 0.78190
H9B H 0.54980 0.88530 0.72840
H10B H 0.59880 0.79030 0.70340
H11B H 0.45930 0.59150 0.72210
H12B H 0.47640 0.52070 0.61000
H13B H 0.42460 0.50480 0.66070
H14B H 0.49630 0.49690 0.67760
H15B H 0.42390 0.67420 0.65440
H16B H 0.43140 0.62840 0.59740
H17B H 0.37920 0.61410 0.64810
#END

data_CSD_CIF_KIBMIS
_audit_creation_date 2007-06-28
_audit_creation_method CSD-ConQuest-V1
_database_code_CSD KIBMIS
_database_code_depnum_ccdc_archive 'CCDC 629882'
_chemical_formula_sum 'C12 H30 I6 Pt1 S2'
_chemical_formula_moiety
;
2(C6 H15 S1 1+),I6 Pt1 2-
;
_journal_coden_Cambridge 29
_journal_volume 633
_journal_year 2007
_journal_page_first 643
_journal_name_full 'Z.Anorg.Allg.Chem. '
loop_
_publ_author_name
"D.Hess"
"M.Gorlov"
"A.Fischer"
"L.Kloo"
_chemical_name_systematic
;
Triethylsulfonium hexakis(iodo)-platinum(iv)
;
_cell_volume   2805.011
_exptl_crystal_colour 'brown'
_exptl_crystal_density_diffrn 2.83
_exptl_crystal_description 'Plate'
_diffrn_ambient_temperature 298
#These two values have been output from a single CSD field.
_refine_ls_R_factor_gt 0.0256
_refine_ls_wR_factor_gt 0.0256
_symmetry_cell_setting cubic
_symmetry_space_group_name_H-M 'P a -3'
_symmetry_Int_Tables_number 205
loop_
_symmetry_equiv_pos_site_id
_symmetry_equiv_pos_as_xyz
1 x,y,z
2 y,z,x
3 z,x,y
4 -y,1/2+z,1/2-x
5 1/2-z,-x,1/2+y
6 1/2-y,-z,1/2+x
7 -x,1/2+y,1/2-z
8 -z,1/2+x,1/2-y
9 1/2+y,1/2-z,-x
10 1/2+x,1/2-y,-z
11 1/2-x,-y,1/2+z
12 1/2+z,1/2-x,-y
13 -x,-y,-z
14 -y,-z,-x
15 -z,-x,-y
16 y,-1/2-z,-1/2+x
17 -1/2+z,x,-1/2-y
18 -1/2+y,z,-1/2-x
19 x,-1/2-y,-1/2+z
20 z,-1/2-x,-1/2+y
21 -1/2-y,-1/2+z,x
22 -1/2-x,-1/2+y,z
23 -1/2+x,y,-1/2-z
24 -1/2-z,-1/2+x,y
_cell_length_a 14.103(2)
_cell_length_b 14.103(2)
_cell_length_c 14.103(2)
_cell_angle_alpha 90
_cell_angle_beta 90
_cell_angle_gamma 90
_cell_formula_units_Z 4
loop_
_atom_type_symbol
_atom_type_radius_bond
C 0.68
H 0.23
I 1.40
Pt 1.50
S 1.02
loop_
_atom_site_label
_atom_site_type_symbol
_atom_site_fract_x
_atom_site_fract_y
_atom_site_fract_z
Pt1 Pt 0.50000 0.50000 0.00000
I1 I 0.44354(3) 0.45631(3) 0.17531(2)
S1 S 0.24740 0.24740 0.24740
C1 C 0.2161(4) 0.2953(4) 0.1331(4)
C2 C 0.1608(4) 0.3844(4) 0.1441(4)
H1 H 0.27310 0.30880 0.09840
H2 H 0.17870 0.25010 0.09860
H3 H 0.14430 0.41070 0.08340
H4 H 0.19840 0.42930 0.17880
H5 H 0.10400 0.37060 0.17900
I1O I 0.45631(3) 0.32469(3) -0.05646(2)
I1P I 0.67531(3) 0.44354(3) 0.04369(2)
I1L I 0.55646(3) 0.54369(3) -0.17531(2)
I1C I 0.54369(3) 0.67531(3) 0.05646(2)
I1D I 0.32469(3) 0.55646(3) -0.04369(2)
C1A C 0.2953(4) 0.1331(4) 0.2161(4)
C1B C 0.1331(4) 0.2161(4) 0.2953(4)
C2A C 0.3844(4) 0.1441(4) 0.1608(4)
C2B C 0.1441(4) 0.1608(4) 0.3844(4)
H1A H 0.30880 0.09840 0.27310
H1B H 0.09840 0.27310 0.30880
H2A H 0.25010 0.09860 0.17870
H2B H 0.09860 0.17870 0.25010
H3A H 0.41070 0.08340 0.14430
H3B H 0.08340 0.14430 0.41070
H4A H 0.42930 0.17880 0.19840
H4B H 0.17880 0.19840 0.42930
H5A H 0.37060 0.17900 0.10400
H5B H 0.17900 0.10400 0.37060
#END

data_CSD_CIF_KILVAF
_audit_creation_date 2018-09-13
_audit_creation_method CSD-ConQuest-V1
_database_code_CSD KILVAF
_database_code_depnum_ccdc_archive 'CCDC 1523502'
_chemical_formula_sum 'C48 H111 Cl4 Mo3 N3 P6 S4'
_chemical_formula_moiety
;
C48 H111 Cl3 Mo3 N3 P6 S4 1+,Cl1 1-
;
_journal_coden_Cambridge 1727
_journal_volume 7
_journal_year 2017
_journal_page_first 106
_journal_name_full 'Curr.Inorg.Chem. '
loop_
_publ_author_name
"C.Alfonso"
"R.Llusar"
"M.Feliz"
_chemical_name_systematic
;
tetrakis(\m-sulfido)-trichloro-tris(2-(diisopropylphosphino)-N-(2-(diisopropyl
phosphino)ethyl)ethanamine)-tri-molybdenum chloride
;
_cell_volume  14198.119
_exptl_crystal_colour 'green'
_exptl_crystal_density_diffrn 1.379
_diffrn_ambient_temperature 199.9
#These two values have been output from a single CSD field.
_refine_ls_R_factor_gt 0.0376
_refine_ls_wR_factor_gt 0.0376
_symmetry_cell_setting cubic
_symmetry_space_group_name_H-M 'P a -3'
_symmetry_Int_Tables_number 205
loop_
_symmetry_equiv_pos_site_id
_symmetry_equiv_pos_as_xyz
1 x,y,z
2 z,x,y
3 y,z,x
4 1/2-y,-z,1/2+x
5 1/2+z,1/2-x,-y
6 -y,1/2+z,1/2-x
7 1/2-z,-x,1/2+y
8 -z,1/2+x,1/2-y
9 1/2+y,1/2-z,-x
10 1/2-x,-y,1/2+z
11 1/2+x,1/2-y,-z
12 -x,1/2+y,1/2-z
13 -x,-y,-z
14 -z,-x,-y
15 -y,-z,-x
16 -1/2+y,z,-1/2-x
17 -1/2-z,-1/2+x,y
18 y,-1/2-z,-1/2+x
19 -1/2+z,x,-1/2-y
20 z,-1/2-x,-1/2+y
21 -1/2-y,-1/2+z,x
22 -1/2+x,y,-1/2-z
23 -1/2-x,-1/2+y,z
24 x,-1/2-y,-1/2+z
_cell_length_a 24.21458(13)
_cell_length_b 24.21458(13)
_cell_length_c 24.21458(13)
_cell_angle_alpha 90
_cell_angle_beta 90
_cell_angle_gamma 90
_cell_formula_units_Z 8
loop_
_atom_type_symbol
_atom_type_radius_bond
C 0.68
H 0.23
Cl 0.99
Mo 1.54
N 0.68
P 1.05
S 1.02
loop_
_atom_site_label
_atom_site_type_symbol
_atom_site_fract_x
_atom_site_fract_y
_atom_site_fract_z
Mo1 Mo 0.64771(2) 0.82160(2) 0.23967(2)
S1 S 0.65821(3) 0.72767(3) 0.23430(3)
S2 S 0.64750(3) 0.85250(3) 0.14750(3)
P1 P 0.63181(3) 0.80939(3) 0.34409(3)
Cl1 Cl 0.54571(3) 0.81113(3) 0.23133(3)
P2 P 0.54228(4) 1.04561(4) 0.19074(5)
N1 N 0.62017(12) 0.91070(11) 0.26588(11)
H1 H 0.65470 0.93150 0.26890
C1 C 0.62861(17) 0.88166(14) 0.36464(15)
H2 H 0.61160 0.88470 0.40080
H3 H 0.66570 0.89680 0.36690
C2 C 0.59505(17) 0.91395(16) 0.32253(15)
H4 H 0.55780 0.89940 0.32130
H5 H 0.59290 0.95230 0.33390
C3 C 0.72437(18) 0.81664(18) 0.41753(16)
H6 H 0.74690 0.83300 0.38930
H7 H 0.74750 0.79700 0.44310
H8 H 0.70460 0.84510 0.43680
C4 C 0.68321(15) 0.77655(15) 0.39118(15)
H9 H 0.66190 0.76060 0.42170
C5 C 0.56522(15) 0.77982(16) 0.36659(15)
H10 H 0.53620 0.79850 0.34540
C6 C 0.56170(18) 0.71898(18) 0.3526(2)
H11 H 0.56800 0.71390 0.31380
H12 H 0.52570 0.70530 0.36210
H13 H 0.58920 0.69910 0.37320
C7 C 0.71390(17) 0.72882(16) 0.36442(18)
H14 H 0.68780 0.70310 0.34940
H15 H 0.73630 0.71060 0.39160
H16 H 0.73700 0.74260 0.33530
C8 C 0.5523(2) 0.7894(2) 0.42795(19)
H17 H 0.57870 0.76990 0.45020
H18 H 0.51590 0.77610 0.43600
H19 H 0.55440 0.82820 0.43600
C9 C 0.58601(17) 1.00598(15) 0.23961(16)
H20 H 0.62370 1.01940 0.23740
H21 H 0.57290 1.01220 0.27700
C10 C 0.58524(15) 0.94423(14) 0.22736(15)
H22 H 0.54740 0.93110 0.22950
H23 H 0.59810 0.93830 0.18990
C11 C 0.59305(16) 1.06691(17) 0.13756(17)
H24 H 0.62600 1.08120 0.15620
C12 C 0.5812(2) 1.1338(2) 0.2609(3)
H25 H 0.59150 1.10860 0.28980
H26 H 0.57170 1.16890 0.27660
H27 H 0.61170 1.13830 0.23590
C13 C 0.6097(2) 1.0181(2) 0.1023(2)
H28 H 0.62960 0.99190 0.12450
H29 H 0.63300 1.03050 0.07260
H30 H 0.57730 1.00090 0.08730
C14 C 0.53230(19) 1.11093(18) 0.2299(2)
H31 H 0.52270 1.13890 0.20230
C15 C 0.5693(2) 1.1125(2) 0.1010(2)
H32 H 0.53500 1.10030 0.08530
H33 H 0.59500 1.12080 0.07200
H34 H 0.56310 1.14500 0.12290
C16 C 0.4820(3) 1.1053(3) 0.2669(3)
H35 H 0.45260 1.08810 0.24660
H36 H 0.47040 1.14130 0.27890
H37 H 0.49120 1.08320 0.29840
Cl2 Cl 0.5720(4) 0.9277(4) 0.4945(5)
Cl3 Cl 0.5254(5) 1.0436(5) 0.3911(3)
Mo1C Mo 0.67840(2) 0.76033(2) 0.14771(2)
S1C S 0.77233(3) 0.76570(3) 0.15821(3)
P1C P 0.69061(3) 0.65591(3) 0.13181(3)
Cl1C Cl 0.68887(3) 0.76867(3) 0.04571(3)
P2C P 0.45439(4) 0.80926(4) 0.04228(5)
N1C N 0.58930(12) 0.73412(11) 0.12017(11)
H1C H 0.56850 0.73110 0.15470
C1C C 0.61834(17) 0.63536(14) 0.12861(15)
H2C H 0.61530 0.59920 0.11160
H3C H 0.60320 0.63310 0.16570
C2C C 0.58605(17) 0.67747(16) 0.09505(15)
H4C H 0.60060 0.67870 0.05780
H5C H 0.54770 0.66610 0.09290
C3C C 0.68336(18) 0.58247(18) 0.22437(16)
H6C H 0.66700 0.61070 0.24690
H7C H 0.70300 0.55690 0.24750
H8C H 0.65490 0.56320 0.20460
C4C C 0.72345(15) 0.60882(15) 0.18321(15)
H9C H 0.73940 0.57830 0.16190
C5C C 0.72018(15) 0.63341(16) 0.06522(15)
H10C H 0.70150 0.65460 0.03620
C6C C 0.78102(18) 0.64740(18) 0.0617(2)
H11C H 0.78610 0.68620 0.06800
H12C H 0.79470 0.63790 0.02570
H13C H 0.80090 0.62680 0.08920
C7C C 0.77118(17) 0.63558(16) 0.21390(18)
H14C H 0.79690 0.65060 0.18780
H15C H 0.78940 0.60840 0.23630
H16C H 0.75740 0.66470 0.23700
C8C C 0.7106(2) 0.57205(20) 0.05230(19)
H17C H 0.73010 0.54980 0.07870
H18C H 0.72390 0.56400 0.01590
H19C H 0.67180 0.56400 0.05440
C9C C 0.49402(17) 0.76039(15) 0.08601(16)
H20C H 0.48060 0.76260 0.12370
H21C H 0.48780 0.72300 0.07290
C10C C 0.55577(15) 0.77264(14) 0.08524(15)
H22C H 0.56890 0.77050 0.04740
H23C H 0.56170 0.81010 0.09810
C11C C 0.43309(16) 0.86244(17) 0.09305(17)
H24C H 0.41880 0.84380 0.12600
C12C C 0.3662(2) 0.7391(2) 0.0812(3)
H25C H 0.39140 0.71020 0.09150
H26C H 0.33110 0.72340 0.07170
H27C H 0.36170 0.76410 0.11170
C13C C 0.4819(2) 0.8977(2) 0.1097(2)
H28C H 0.50810 0.87550 0.12960
H29C H 0.46950 0.92740 0.13300
H30C H 0.49910 0.91270 0.07730
C14C C 0.38907(19) 0.77010(18) 0.0323(2)
H31C H 0.36110 0.79770 0.02270
C15C C 0.3875(2) 0.8990(2) 0.0693(2)
H32C H 0.39970 0.91470 0.03500
H33C H 0.37920 0.92800 0.09500
H34C H 0.35500 0.87710 0.06310
C16C C 0.3947(3) 0.7331(3) -0.0180(3)
H35C H 0.41190 0.75340 -0.04740
H36C H 0.35870 0.72110 -0.02960
H37C H 0.41680 0.70160 -0.00880
Mo1D Mo 0.73967(2) 0.85229(2) 0.17840(2)
S1D S 0.73430(3) 0.84179(3) 0.27233(3)
P1D P 0.84409(3) 0.86819(3) 0.19061(3)
Cl1D Cl 0.73133(3) 0.95429(3) 0.18887(3)
P2D P 0.69074(4) 0.95772(4) -0.04561(5)
N1D N 0.76588(12) 0.87983(11) 0.08930(11)
H1D H 0.76890 0.84530 0.06850
C1D C 0.86464(17) 0.87139(14) 0.11834(15)
H2D H 0.90080 0.88840 0.11530
H3D H 0.86690 0.83430 0.10320
C2D C 0.82253(17) 0.90495(16) 0.08605(15)
H4D H 0.82130 0.94220 0.10060
H5D H 0.83390 0.90710 0.04770
C3D C 0.91753(18) 0.77563(18) 0.18336(16)
H6D H 0.88930 0.75310 0.16700
H7D H 0.94310 0.75250 0.20300
H8D H 0.93680 0.79540 0.15490
C4D C 0.89118(15) 0.81679(15) 0.22345(15)
H9D H 0.92170 0.83810 0.23940
C5D C 0.86659(15) 0.93478(16) 0.22018(15)
H10D H 0.84540 0.96380 0.20150
C6D C 0.85260(18) 0.93830(18) 0.28102(20)
H11D H 0.81380 0.93200 0.28610
H12D H 0.86210 0.97430 0.29470
H13D H 0.87320 0.91080 0.30090
C7D C 0.86442(17) 0.78610(16) 0.27118(18)
H14D H 0.84940 0.81220 0.29690
H15D H 0.89160 0.76370 0.28940
H16D H 0.83530 0.76300 0.25740
C8D C 0.92795(20) 0.9477(2) 0.21060(19)
H17D H 0.95020 0.92130 0.23010
H18D H 0.93600 0.98410 0.22390
H19D H 0.93600 0.94560 0.17180
C9D C 0.73961(17) 0.91399(15) -0.00598(16)
H20D H 0.73740 0.87630 -0.01940
H21D H 0.77700 0.92710 -0.01220
C10D C 0.72736(15) 0.91476(14) 0.05577(15)
H22D H 0.72950 0.95260 0.06890
H23D H 0.68990 0.90190 0.06170
C11D C 0.63756(16) 0.90695(17) -0.06691(17)
H24D H 0.65620 0.87400 -0.08120
C12D C 0.7609(2) 0.9188(2) -0.1338(3)
H25D H 0.78980 0.90850 -0.10860
H26D H 0.77660 0.92830 -0.16890
H27D H 0.73590 0.88830 -0.13830
C13D C 0.6023(2) 0.8903(2) -0.0181(2)
H28D H 0.62450 0.87040 0.00810
H29D H 0.57260 0.86700 -0.03050
H30D H 0.58730 0.92270 -0.00090
C14D C 0.72990(19) 0.96770(18) -0.11093(20)
H31D H 0.70230 0.97730 -0.13890
C15D C 0.6010(2) 0.9307(2) -0.1125(2)
H32D H 0.58530 0.96500 -0.10030
H33D H 0.57200 0.90500 -0.12080
H34D H 0.62290 0.93690 -0.14500
C16D C 0.7669(3) 1.0180(3) -0.1053(3)
H35D H 0.74660 1.04740 -0.08810
H36D H 0.77890 1.02960 -0.14130
H37D H 0.79840 1.00880 -0.08320
#END

data_CSD_CIF_KOJLAW
_audit_creation_date 1992-05-19
_audit_creation_method CSD-ConQuest-V1
_database_code_CSD KOJLAW
_database_code_depnum_ccdc_fiz 'CSD 55496'
_chemical_formula_sum 'C12 H36 F1 N7 P2'
_chemical_formula_moiety
;
C12 H36 N7 P2 1+,F1 1-
;
_journal_coden_Cambridge 179
_journal_volume 30
_journal_year 1991
_journal_page_first 1372
_journal_name_full 'Angew.Chem.,Int.Ed. '
loop_
_publ_author_name
"R.Schwesinger"
"R.Link"
"G.Thiele"
"H.Rotter"
"D.Honert"
"H.-H.Limbach"
"F.Mannle"
_chemical_name_systematic
;
bis(tris(Dimethylamino)phosphine)iminium fluoride
;
_chemical_melting_point 417.15
_cell_volume   2001.805
_exptl_crystal_colour 'colorless'
_exptl_special_details
;
Melts with decomposition.

;
_diffrn_ambient_temperature ?
_diffrn_special_details
;
The study was carried out at room temperature,in the range 283-303K

;
#These two values have been output from a single CSD field.
_refine_ls_R_factor_gt 0.0461
_refine_ls_wR_factor_gt 0.0461
_symmetry_cell_setting cubic
_symmetry_space_group_name_H-M 'P a 3'
_symmetry_Int_Tables_number 205
loop_
_symmetry_equiv_pos_site_id
_symmetry_equiv_pos_as_xyz
1 x,y,z
2 z,x,y
3 y,z,x
4 1/2+x,y,1/2-z
5 1/2+z,x,1/2-y
6 1/2+y,z,1/2-x
7 1/2-x,1/2+y,z
8 1/2-z,1/2+x,y
9 1/2-y,1/2+z,x
10 -x,1/2+y,1/2-z
11 -z,1/2+x,1/2-y
12 -y,1/2+z,1/2-x
13 -x,-y,-z
14 -z,-x,-y
15 -y,-z,-x
16 -1/2-x,-y,-1/2+z
17 -1/2-z,-x,-1/2+y
18 -1/2-y,-z,-1/2+x
19 -1/2+x,-1/2-y,-z
20 -1/2+z,-1/2-x,-y
21 -1/2+y,-1/2-z,-x
22 x,-1/2-y,-1/2+z
23 z,-1/2-x,-1/2+y
24 y,-1/2-z,-1/2+x
_cell_length_a 12.603(1)
_cell_length_b 12.603(1)
_cell_length_c 12.603(1)
_cell_angle_alpha 90
_cell_angle_beta 90
_cell_angle_gamma 90
_cell_formula_units_Z 4
loop_
_atom_type_symbol
_atom_type_radius_bond
C 0.68
H 0.23
F 0.64
N 0.68
P 1.05
loop_
_atom_site_label
_atom_site_type_symbol
_atom_site_fract_x
_atom_site_fract_y
_atom_site_fract_z
F1 F 0.50000 0.50000 0.50000
N1 N 0.00000 0.00000 0.00000
P1 P 0.0703(1) 0.0703(1) 0.0703(1)
N2 N 0.0470(2) 0.1955(2) 0.0478(2)
C1 C 0.1270(3) 0.2779(3) 0.0566(3)
C2 C -0.0613(3) 0.2340(3) 0.0430(3)
H1 H 0.09770 0.34620 0.03990
H2 H 0.15300 0.27830 0.12820
H3 H 0.18430 0.26240 0.00890
H4 H -0.06240 0.30890 0.02930
H5 H -0.09760 0.19730 -0.01310
H6 H -0.09620 0.21980 0.10920
P1L P -0.0703(1) -0.0703(1) -0.0703(1)
N2A N 0.0478(2) 0.0470(2) 0.1955(2)
N2B N 0.1955(2) 0.0478(2) 0.0470(2)
N2L N -0.0470(2) -0.1955(2) -0.0478(2)
N2M N -0.0478(2) -0.0470(2) -0.1955(2)
N2N N -0.1955(2) -0.0478(2) -0.0470(2)
C1A C 0.0566(3) 0.1270(3) 0.2779(3)
C2A C 0.0430(3) -0.0613(3) 0.2340(3)
C1B C 0.2779(3) 0.0566(3) 0.1270(3)
C2B C 0.2340(3) 0.0430(3) -0.0613(3)
C1L C -0.1270(3) -0.2779(3) -0.0566(3)
C2L C 0.0613(3) -0.2340(3) -0.0430(3)
C1M C -0.0566(3) -0.1270(3) -0.2779(3)
C2M C -0.0430(3) 0.0613(3) -0.2340(3)
C1N C -0.2779(3) -0.0566(3) -0.1270(3)
C2N C -0.2340(3) -0.0430(3) 0.0613(3)
H1A H 0.03990 0.09770 0.34620
H2A H 0.12820 0.15300 0.27830
H3A H 0.00890 0.18430 0.26240
H4A H 0.02930 -0.06240 0.30890
H5A H -0.01310 -0.09760 0.19730
H6A H 0.10920 -0.09620 0.21980
H1B H 0.34620 0.03990 0.09770
H2B H 0.27830 0.12820 0.15300
H3B H 0.26240 0.00890 0.18430
H4B H 0.30890 0.02930 -0.06240
H5B H 0.19730 -0.01310 -0.09760
H6B H 0.21980 0.10920 -0.09620
H1L H -0.09770 -0.34620 -0.03990
H2L H -0.15300 -0.27830 -0.12820
H3L H -0.18430 -0.26240 -0.00890
H4L H 0.06240 -0.30890 -0.02930
H5L H 0.09760 -0.19730 0.01310
H6L H 0.09620 -0.21980 -0.10920
H1M H -0.03990 -0.09770 -0.34620
H2M H -0.12820 -0.15300 -0.27830
H3M H -0.00890 -0.18430 -0.26240
H4M H -0.02930 0.06240 -0.30890
H5M H 0.01310 0.09760 -0.19730
H6M H -0.10920 0.09620 -0.21980
H1N H -0.34620 -0.03990 -0.09770
H2N H -0.27830 -0.12820 -0.15300
H3N H -0.26240 -0.00890 -0.18430
H4N H -0.30890 -0.02930 0.06240
H5N H -0.19730 0.01310 0.09760
H6N H -0.21980 -0.10920 0.09620
#END

data_CSD_CIF_KUWHEP
_audit_creation_date 1993-06-17
_audit_creation_method CSD-ConQuest-V1
_database_code_CSD KUWHEP
_database_code_depnum_ccdc_archive 'CCDC 1201787'
_chemical_formula_sum 'C15 H39 Mo1 N3 O6'
_chemical_formula_moiety
;
C15 H33 Mo1 N3 O3,3(H2 O1)
;
_journal_coden_Cambridge 186
_journal_year 1993
_journal_page_first 83
_journal_name_full 'J.Chem.Soc.,Dalton Trans. '
loop_
_publ_author_name
"G.Haselhorst"
"S.Stoetzel"
"A.Strassburger"
"W.Walz"
"K.Wieghardt"
"B.Nuber"
_chemical_name_systematic
;
(1,4,7,-Tri-isopropyl-1,4,7-triazacyclononane)-trioxo-molybdenum(vi) 
trihydrate
;
_cell_volume   4181.062
_exptl_crystal_colour 'colorless'
_exptl_crystal_density_diffrn 1.44
_diffrn_ambient_temperature ?
_diffrn_special_details
;
The study was carried out at room temperature,in the range 283-303K

;
#These two values have been output from a single CSD field.
_refine_ls_R_factor_gt 0.03
_refine_ls_wR_factor_gt 0.03
_symmetry_cell_setting cubic
_symmetry_space_group_name_H-M 'P a 3'
_symmetry_Int_Tables_number 205
loop_
_symmetry_equiv_pos_site_id
_symmetry_equiv_pos_as_xyz
1 x,y,z
2 z,x,y
3 y,z,x
4 -x,1/2+y,1/2-z
5 -z,1/2+x,1/2-y
6 -y,1/2+z,1/2-x
7 1/2-x,-y,1/2+z
8 1/2-z,-x,1/2+y
9 1/2-y,-z,1/2+x
10 1/2+x,1/2-y,-z
11 1/2+z,1/2-x,-y
12 1/2+y,1/2-z,-x
13 -x,-y,-z
14 -z,-x,-y
15 -y,-z,-x
16 x,-1/2-y,-1/2+z
17 z,-1/2-x,-1/2+y
18 y,-1/2-z,-1/2+x
19 -1/2+x,y,-1/2-z
20 -1/2+z,x,-1/2-y
21 -1/2+y,z,-1/2-x
22 -1/2-x,-1/2+y,z
23 -1/2-z,-1/2+x,y
24 -1/2-y,-1/2+z,x
_cell_length_a 16.110(5)
_cell_length_b 16.110(5)
_cell_length_c 16.110(5)
_cell_angle_alpha 90
_cell_angle_beta 90
_cell_angle_gamma 90
_cell_formula_units_Z 8
loop_
_atom_type_symbol
_atom_type_radius_bond
C 0.68
H 0.23
Mo 1.45
N 0.68
O 0.68
loop_
_atom_site_label
_atom_site_type_symbol
_atom_site_fract_x
_atom_site_fract_y
_atom_site_fract_z
Mo1 Mo 0.1418(1) 0.1418(1) 0.1418(1)
O1 O 0.0454(2) 0.1209(2) 0.1854(2)
N1 N 0.2876(2) 0.1822(2) 0.1456(2)
C1 C 0.2983(3) 0.2734(3) 0.1554(3)
C2 C 0.3211(3) 0.1367(3) 0.2191(3)
C3 C 0.3324(3) 0.1493(3) 0.0682(3)
C4 C 0.4273(2) 0.1519(3) 0.0747(3)
C5 C 0.3051(3) 0.1936(3) -0.0105(3)
H1 H 0.44550 0.20850 0.07750
H2 H 0.45110 0.12570 0.02680
H3 H 0.44460 0.12300 0.12380
H4 H 0.32320 0.25040 -0.00860
H5 H 0.24570 0.19190 -0.01460
H6 H 0.32910 0.16660 -0.05780
H7 H 0.3409(27) 0.2950(27) 0.1245(27)
H8 H 0.3189(29) 0.2841(30) 0.2078(27)
H9 H 0.3179(27) 0.0781(29) 0.2033(28)
H10 H 0.3783(28) 0.1505(29) 0.2329(27)
H11 H 0.3125(28) 0.0892(28) 0.0651(28)
O2 O 0.3622(3) 0.4212(2) 0.0094(2)
H12 H 0.3745(33) 0.4449(33) -0.0311(31)
H13 H 0.3499(31) 0.4594(29) 0.0448(29)
O1A O 0.1854(2) 0.0454(2) 0.1209(2)
O1B O 0.1209(2) 0.1854(2) 0.0454(2)
N1A N 0.1456(2) 0.2876(2) 0.1822(2)
N1B N 0.1822(2) 0.1456(2) 0.2876(2)
C2A C 0.2191(3) 0.3211(3) 0.1367(3)
C1B C 0.2734(3) 0.1554(3) 0.2983(3)
C1A C 0.1554(3) 0.2983(3) 0.2734(3)
C3A C 0.0682(3) 0.3324(3) 0.1493(3)
C2B C 0.1367(3) 0.2191(3) 0.3211(3)
C3B C 0.1493(3) 0.0682(3) 0.3324(3)
H9A H 0.2033(27) 0.3179(29) 0.0781(28)
H10A H 0.2329(28) 0.3783(29) 0.1505(27)
H7B H 0.2950(27) 0.1245(27) 0.3409(27)
H8B H 0.2841(29) 0.2078(30) 0.3189(27)
H7A H 0.1245(27) 0.3409(27) 0.2950(27)
H8A H 0.2078(29) 0.3189(30) 0.2841(27)
C4A C 0.0747(2) 0.4273(3) 0.1519(3)
C5A C -0.0105(3) 0.3051(3) 0.1936(3)
H11A H 0.0651(28) 0.3125(28) 0.0892(28)
H9B H 0.0781(27) 0.2033(29) 0.3179(28)
H10B H 0.1505(28) 0.2329(29) 0.3783(27)
C4B C 0.1519(2) 0.0747(3) 0.4273(3)
C5B C 0.1936(3) -0.0105(3) 0.3051(3)
H11B H 0.0892(28) 0.0651(28) 0.3125(28)
H1A H 0.07750 0.44550 0.20850
H2A H 0.02680 0.45110 0.12570
H3A H 0.12380 0.44460 0.12300
H4A H -0.00860 0.32320 0.25040
H5A H -0.01460 0.24570 0.19190
H6A H -0.05780 0.32910 0.16660
H1B H 0.20850 0.07750 0.44550
H2B H 0.12570 0.02680 0.45110
H3B H 0.12300 0.12380 0.44460
H4B H 0.25040 -0.00860 0.32320
H5B H 0.19190 -0.01460 0.24570
H6B H 0.16660 -0.05780 0.32910
#END

data_CSD_CIF_KUWRIE
_audit_creation_date 2010-09-23
_audit_creation_method CSD-ConQuest-V1
_database_code_CSD KUWRIE
_database_code_depnum_ccdc_archive 'CCDC 733436'
_chemical_formula_sum 'C84 H120 Fe6 N18 O30'
_chemical_formula_moiety
;
C78 H96 Fe6 N18 O24,6(C1 H4 O1)
;
_journal_coden_Cambridge 971
_journal_volume 11
_journal_year 2009
_journal_page_first 2180
_journal_name_full 'Solid State Sciences '
loop_
_publ_author_name
"Tian-Pin Shu"
"Jun-Long Wen"
"Hai-Mei Feng"
"Ke-Wei Lei"
"Hong-Zi Liang"
_chemical_name_systematic
;
hexakis(\m~2~-2-Hydroxy-N-(1-hydroxyethylidene)-3-methylbenzenecarbohydrazonat
o)-hexakis(dimethylformamide)-hexa-iron(iii) methanol solvate
;
_cell_volume   9899.597
_exptl_crystal_colour 'black'
_exptl_crystal_density_diffrn 1.474
_exptl_special_details
;
Cell parameters incorrectly published as a=b=c=27.472(3)

;
_exptl_crystal_description 'block'
_diffrn_ambient_temperature 295
#These two values have been output from a single CSD field.
_refine_ls_R_factor_gt 0.0398
_refine_ls_wR_factor_gt 0.0398
_symmetry_cell_setting cubic
_symmetry_space_group_name_H-M 'P a -3'
_symmetry_Int_Tables_number 205
loop_
_symmetry_equiv_pos_site_id
_symmetry_equiv_pos_as_xyz
1 x,y,z
2 1/2-x,-y,1/2+z
3 -x,1/2+y,1/2-z
4 1/2+x,1/2-y,-z
5 z,x,y
6 1/2+z,1/2-x,-y
7 1/2-z,-x,1/2+y
8 -z,1/2+x,1/2-y
9 y,z,x
10 -y,1/2+z,1/2-x
11 1/2+y,1/2-z,-x
12 1/2-y,-z,1/2+x
13 -x,-y,-z
14 -1/2+x,y,-1/2-z
15 x,-1/2-y,-1/2+z
16 -1/2-x,-1/2+y,z
17 -z,-x,-y
18 -1/2-z,-1/2+x,y
19 -1/2+z,x,-1/2-y
20 z,-1/2-x,-1/2+y
21 -y,-z,-x
22 y,-1/2-z,-1/2+x
23 -1/2-y,-1/2+z,x
24 -1/2+y,z,-1/2-x
_cell_length_a 21.472(3)
_cell_length_b 21.472(3)
_cell_length_c 21.472(3)
_cell_angle_alpha 90
_cell_angle_beta 90
_cell_angle_gamma 90
_cell_formula_units_Z 4
loop_
_atom_type_symbol
_atom_type_radius_bond
C 0.68
H 0.23
Fe 1.52
N 0.68
O 0.68
loop_
_atom_site_label
_atom_site_type_symbol
_atom_site_fract_x
_atom_site_fract_y
_atom_site_fract_z
Fe1 Fe 0.520494(15) 0.331910(15) 0.148242(15)
O1 O 0.57110(8) 0.35963(7) 0.07190(8)
O2 O 0.60912(7) 0.48181(7) 0.24333(8)
O3 O 0.48672(8) 0.32756(8) 0.22958(8)
N1 N 0.56862(9) 0.40852(9) 0.17823(9)
O4 O 0.59522(8) 0.27330(8) 0.16590(9)
N2 N 0.60537(9) 0.43932(9) 0.13311(9)
C1 C 0.60357(10) 0.40957(11) 0.07949(10)
C2 C 0.57475(10) 0.4335(1) 0.23449(10)
N3 N 0.64434(11) 0.18679(11) 0.19815(11)
C3 C 0.50115(11) 0.3544(1) 0.28315(11)
C4 C 0.55594(11) 0.43015(11) 0.34756(11)
H1 H 0.58310 0.46370 0.35110
C5 C 0.54286(10) 0.40539(10) 0.28831(10)
C6 C 0.47255(11) 0.33014(11) 0.33794(12)
C7 C 0.63996(13) 0.43402(12) 0.02521(11)
H2 H 0.65030 0.40030 -0.00220
H3 H 0.67750 0.45330 0.03990
H4 H 0.61540 0.46410 0.00310
C8 C 0.42689(13) 0.27713(12) 0.33105(13)
H5 H 0.41210 0.26490 0.37140
H6 H 0.44720 0.24240 0.31150
H7 H 0.39240 0.29040 0.30590
C9 C 0.48722(12) 0.35591(11) 0.39515(11)
H8 H 0.46870 0.33990 0.43090
C10 C 0.52910(12) 0.40537(11) 0.40064(12)
H9 H 0.53890 0.42150 0.43960
C11 C 0.59486(13) 0.22481(13) 0.19514(13)
H10 H 0.55880 0.21360 0.21630
C12 C 0.70067(15) 0.20173(16) 0.16371(17)
H11 H 0.69470 0.23990 0.14130
H12 H 0.70970 0.16880 0.13490
H13 H 0.73480 0.20630 0.19220
C13 C 0.64307(15) 0.13058(14) 0.23536(15)
H14 H 0.60320 0.12680 0.25530
H15 H 0.67510 0.13260 0.26650
H16 H 0.65000 0.09510 0.20900
O5 O 0.62923(12) 0.26395(12) 0.00654(14)
H17 H 0.61420 0.29200 0.02760
C14 C 0.59496(19) 0.21013(16) 0.01491(17)
H18 H 0.60060 0.19520 0.05670
H19 H 0.60880 0.17900 -0.01400
H20 H 0.55170 0.21880 0.00790
Fe1R Fe 0.648242(15) 0.520494(15) 0.168090(15)
Fe1U Fe 0.331910(15) 0.351758(15) 0.020494(15)
Fe1F Fe 0.351758(15) 0.479506(15) -0.168090(15)
Fe1I Fe 0.668090(15) 0.648242(15) -0.020494(15)
Fe1L Fe 0.479506(15) 0.668090(15) -0.148242(15)
O1R O 0.57190(8) 0.57110(7) 0.14037(8)
O1U O 0.35963(8) 0.42810(7) 0.07110(8)
O1F O 0.42810(8) 0.42890(7) -0.14037(8)
O1I O 0.64037(8) 0.57190(7) -0.07110(8)
O1L O 0.42890(8) 0.64037(7) -0.07190(8)
O2R O 0.74333(7) 0.60912(7) 0.01819(8)
O2U O 0.48181(7) 0.25667(7) 0.10912(8)
O2F O 0.25667(7) 0.39088(7) -0.01819(8)
O2I O 0.51819(7) 0.74333(7) -0.10912(8)
O2L O 0.39088(7) 0.51819(7) -0.24333(8)
O3R O 0.72958(8) 0.48672(8) 0.17244(8)
O3U O 0.32756(8) 0.27042(8) -0.01328(8)
O3F O 0.27042(8) 0.51328(8) -0.17244(8)
O3I O 0.67244(8) 0.72958(8) 0.01328(8)
O3L O 0.51328(8) 0.67244(8) -0.22958(8)
N1R N 0.67823(9) 0.56862(9) 0.09148(9)
N1U N 0.40852(9) 0.32177(9) 0.06862(9)
N1F N 0.32177(9) 0.43138(9) -0.09148(9)
N1I N 0.59148(9) 0.67823(9) -0.06862(9)
N1L N 0.43138(9) 0.59148(9) -0.17823(9)
O4R O 0.66590(8) 0.59522(8) 0.22670(9)
O4U O 0.27330(8) 0.33410(8) 0.09522(9)
O4F O 0.33410(8) 0.40478(8) -0.22670(9)
O4I O 0.72670(8) 0.66590(8) -0.09522(9)
O4L O 0.40478(8) 0.72670(8) -0.16590(9)
N2R N 0.63311(9) 0.60537(9) 0.06068(9)
N2U N 0.43932(9) 0.36689(9) 0.10537(9)
N2F N 0.36689(9) 0.39463(9) -0.06068(9)
N2I N 0.56068(9) 0.63311(9) -0.10537(9)
N2L N 0.39463(9) 0.56068(9) -0.13311(9)
C1R C 0.57949(10) 0.60357(11) 0.09043(10)
C1U C 0.40957(10) 0.42051(11) 0.10357(10)
C1F C 0.42051(10) 0.39643(11) -0.09043(10)
C1I C 0.59043(10) 0.57949(11) -0.10357(10)
C1L C 0.39643(10) 0.59043(11) -0.07949(10)
C2R C 0.73449(10) 0.57475(10) 0.0665(1)
C2U C 0.4335(1) 0.26551(10) 0.07475(10)
C2F C 0.26551(10) 0.42525(10) -0.0665(1)
C2I C 0.5665(1) 0.73449(10) -0.07475(10)
C2L C 0.42525(10) 0.5665(1) -0.23449(10)
N3R N 0.69815(11) 0.64434(11) 0.31321(11)
N3U N 0.18679(11) 0.30185(11) 0.14434(11)
N3F N 0.30185(11) 0.35566(11) -0.31321(11)
N3I N 0.81321(11) 0.69815(11) -0.14434(11)
N3L N 0.35566(11) 0.81321(11) -0.19815(11)
C3R C 0.78315(11) 0.50115(10) 0.14560(11)
C3U C 0.35440(11) 0.21685(10) 0.00115(11)
C3F C 0.21685(11) 0.49885(10) -0.14560(11)
C3I C 0.64560(11) 0.78315(10) -0.00115(11)
C3L C 0.49885(11) 0.6456(1) -0.28315(11)
C4R C 0.84756(11) 0.55594(11) 0.06985(11)
C4U C 0.43015(11) 0.15244(11) 0.05594(11)
C4F C 0.15244(11) 0.44406(11) -0.06985(11)
C4I C 0.56985(11) 0.84756(11) -0.05594(11)
C4L C 0.44406(11) 0.56985(11) -0.34756(11)
H1R H 0.85110 0.58310 0.03630
H1U H 0.46370 0.14890 0.08310
H1F H 0.14890 0.41690 -0.03630
H1I H 0.53630 0.85110 -0.08310
H1L H 0.41690 0.53630 -0.35110
C5R C 0.78831(10) 0.54286(10) 0.09461(10)
C5U C 0.40539(10) 0.21169(10) 0.04286(10)
C5F C 0.21169(10) 0.45714(10) -0.09461(10)
C5I C 0.59461(10) 0.78831(10) -0.04286(10)
C5L C 0.45714(10) 0.59461(10) -0.28831(10)
C6R C 0.83794(11) 0.47255(11) 0.16986(12)
C6U C 0.33014(11) 0.16206(11) -0.02745(12)
C6F C 0.16206(11) 0.52745(11) -0.16986(12)
C6I C 0.66986(11) 0.83794(11) 0.02745(12)
C6L C 0.52745(11) 0.66986(11) -0.33794(12)
C7R C 0.52521(13) 0.63996(12) 0.06598(11)
C7U C 0.43402(13) 0.47479(12) 0.13996(11)
C7F C 0.47479(13) 0.36004(12) -0.06598(11)
C7I C 0.56598(13) 0.52521(12) -0.13996(11)
C7L C 0.36004(13) 0.56598(12) -0.02521(11)
H2R H 0.49780 0.65030 0.09970
H2U H 0.40030 0.50220 0.15030
H2F H 0.50220 0.34970 -0.09970
H2I H 0.59970 0.49780 -0.15030
H2L H 0.34970 0.59970 0.00220
H3R H 0.53990 0.67750 0.04670
H3U H 0.45330 0.46010 0.17750
H3F H 0.46010 0.32250 -0.04670
H3I H 0.54670 0.53990 -0.17750
H3L H 0.32250 0.54670 -0.03990
H4R H 0.50310 0.61540 0.03590
H4U H 0.46410 0.49690 0.11540
H4F H 0.49690 0.38460 -0.03590
H4I H 0.53590 0.50310 -0.11540
H4L H 0.38460 0.53590 -0.00310
C8R C 0.83105(13) 0.42689(12) 0.22287(13)
C8U C 0.27713(13) 0.16895(12) -0.07311(13)
C8F C 0.16895(13) 0.57311(12) -0.22287(13)
C8I C 0.72287(13) 0.83105(12) 0.07311(13)
C8L C 0.57311(13) 0.72287(12) -0.33105(13)
H5R H 0.87140 0.41210 0.23510
H5U H 0.26490 0.12860 -0.08790
H5F H 0.12860 0.58790 -0.23510
H5I H 0.73510 0.87140 0.08790
H5L H 0.58790 0.73510 -0.37140
H6R H 0.81150 0.44720 0.25760
H6U H 0.24240 0.18850 -0.05280
H6F H 0.18850 0.55280 -0.25760
H6I H 0.75760 0.81150 0.05280
H6L H 0.55280 0.75760 -0.31150
H7R H 0.80590 0.39240 0.20960
H7U H 0.29040 0.19410 -0.10760
H7F H 0.19410 0.60760 -0.20960
H7I H 0.70960 0.80590 0.10760
H7L H 0.60760 0.70960 -0.30590
C9R C 0.89515(12) 0.48722(11) 0.14409(11)
C9U C 0.35591(12) 0.10485(11) -0.01278(11)
C9F C 0.10485(12) 0.51278(11) -0.14409(11)
C9I C 0.64409(12) 0.89515(11) 0.01278(11)
C9L C 0.51278(12) 0.64409(11) -0.39515(11)
H8R H 0.93090 0.46870 0.16010
H8U H 0.33990 0.06910 -0.03130
H8F H 0.06910 0.53130 -0.16010
H8I H 0.66010 0.93090 0.03130
H8L H 0.53130 0.66010 -0.43090
C10R C 0.90064(12) 0.52910(11) 0.09463(12)
C10U C 0.40537(12) 0.09936(11) 0.02910(12)
C10F C 0.09936(12) 0.47090(11) -0.09463(12)
C10I C 0.59463(12) 0.90064(11) -0.02910(12)
C10L C 0.47090(12) 0.59463(11) -0.40064(12)
H9R H 0.93960 0.53890 0.07850
H9U H 0.42150 0.06040 0.03890
H9F H 0.06040 0.46110 -0.07850
H9I H 0.57850 0.93960 -0.03890
H9L H 0.46110 0.57850 -0.43960
C11R C 0.69514(13) 0.59486(13) 0.27519(13)
C11U C 0.22481(13) 0.30486(13) 0.09486(13)
C11F C 0.30486(13) 0.40514(13) -0.27519(13)
C11I C 0.77519(13) 0.69514(13) -0.09486(13)
C11L C 0.40514(13) 0.77519(13) -0.19514(13)
H10R H 0.71630 0.55880 0.28640
H10U H 0.21360 0.28370 0.05880
H10F H 0.28370 0.44120 -0.28640
H10I H 0.78640 0.71630 -0.05880
H10L H 0.44120 0.78640 -0.21630
C12R C 0.66371(15) 0.70067(16) 0.29827(17)
C12U C 0.20173(15) 0.33629(16) 0.20067(17)
C12F C 0.33629(15) 0.29933(16) -0.29827(17)
C12I C 0.79827(15) 0.66371(16) -0.20067(17)
C12L C 0.29933(15) 0.79827(16) -0.16371(17)
H11R H 0.64130 0.69470 0.26010
H11U H 0.23990 0.35870 0.19470
H11F H 0.35870 0.30530 -0.26010
H11I H 0.76010 0.64130 -0.19470
H11L H 0.30530 0.76010 -0.14130
H12R H 0.63490 0.70970 0.33120
H12U H 0.16880 0.36510 0.20970
H12F H 0.36510 0.29030 -0.33120
H12I H 0.83120 0.63490 -0.20970
H12L H 0.29030 0.83120 -0.13490
H13R H 0.69220 0.73480 0.29370
H13U H 0.20630 0.30780 0.23480
H13F H 0.30780 0.26520 -0.29370
H13I H 0.79370 0.69220 -0.23480
H13L H 0.26520 0.79370 -0.19220
C13R C 0.73536(15) 0.64307(14) 0.36942(15)
C13U C 0.13058(15) 0.26464(14) 0.14307(15)
C13F C 0.26464(15) 0.35693(14) -0.36942(15)
C13I C 0.86942(15) 0.73536(14) -0.14307(15)
C13L C 0.35693(15) 0.86942(14) -0.23536(15)
H14R H 0.75530 0.60320 0.37320
H14U H 0.12680 0.24470 0.10320
H14F H 0.24470 0.39680 -0.37320
H14I H 0.87320 0.75530 -0.10320
H14L H 0.39680 0.87320 -0.25530
H15R H 0.76650 0.67510 0.36740
H15U H 0.13260 0.23350 0.17510
H15F H 0.23350 0.32490 -0.36740
H15I H 0.86740 0.76650 -0.17510
H15L H 0.32490 0.86740 -0.26650
H16R H 0.70900 0.65000 0.40490
H16U H 0.09510 0.29100 0.15000
H16F H 0.29100 0.35000 -0.40490
H16I H 0.90490 0.70900 -0.15000
H16L H 0.35000 0.90490 -0.20900
#END

data_CSD_CIF_LAKNOB
_audit_creation_date 2005-08-24
_audit_creation_method CSD-ConQuest-V1
_database_code_CSD LAKNOB
_database_code_depnum_ccdc_archive 'CCDC 270902'
_chemical_formula_sum 'C48 H93 Ge1 K1 N3 P3 Si6'
_chemical_formula_moiety
;
C48 H93 Ge1 K1 N3 P3 Si6
;
_journal_coden_Cambridge 579
_journal_volume 24
_journal_year 2005
_journal_page_first 2157
_journal_name_full 'Organometallics '
loop_
_publ_author_name
"K.Izod"
"W.McFarlane"
"B.Allen"
"W.Clegg"
"R.W.Harrington"
_chemical_name_systematic
;
rac-tris(\m~2~-((2-dimethylaminomethyl)phenyl) 
(bis(trimethylsilyl)methyl)phosphino)-germanium(ii)-potassium
;
_cell_volume  12956.846
_exptl_crystal_colour 'red'
_exptl_crystal_density_diffrn 1.113
_exptl_crystal_description 'block'
_exptl_crystal_preparation 'n-hexane'
_diffrn_ambient_temperature 150
#These two values have been output from a single CSD field.
_refine_ls_R_factor_gt 0.0402
_refine_ls_wR_factor_gt 0.0402
_symmetry_cell_setting cubic
_symmetry_space_group_name_H-M 'P a -3'
_symmetry_Int_Tables_number 205
loop_
_symmetry_equiv_pos_site_id
_symmetry_equiv_pos_as_xyz
1 x,y,z
2 z,x,y
3 y,z,x
4 1/2-x,-y,1/2+z
5 -x,1/2+y,1/2-z
6 1/2+x,1/2-y,-z
7 1/2+z,1/2-x,-y
8 1/2-z,-x,1/2+y
9 -z,1/2+x,1/2-y
10 -y,1/2+z,1/2-x
11 1/2+y,1/2-z,-x
12 1/2-y,-z,1/2+x
13 -x,-y,-z
14 -z,-x,-y
15 -y,-z,-x
16 -1/2+x,y,-1/2-z
17 x,-1/2-y,-1/2+z
18 -1/2-x,-1/2+y,z
19 -1/2-z,-1/2+x,y
20 -1/2+z,x,-1/2-y
21 z,-1/2-x,-1/2+y
22 y,-1/2-z,-1/2+x
23 -1/2-y,-1/2+z,x
24 -1/2+y,z,-1/2-x
_cell_length_a 23.4873(5)
_cell_length_b 23.4873(5)
_cell_length_c 23.4873(5)
_cell_angle_alpha 90
_cell_angle_beta 90
_cell_angle_gamma 90
_cell_formula_units_Z 8
loop_
_atom_type_symbol
_atom_type_radius_bond
C 0.68
H 0.23
Ge 1.17
K 1.80
N 0.68
P 1.05
Si 1.20
loop_
_atom_site_label
_atom_site_type_symbol
_atom_site_fract_x
_atom_site_fract_y
_atom_site_fract_z
Ge1 Ge 0.819965(11) 0.319965(11) 0.180035(11)
K1 K 0.91096(2) 0.41096(2) 0.08904(2)
Si1 Si 0.89370(4) 0.17590(3) 0.23722(4)
Si2 Si 1.01585(4) 0.22601(4) 0.20647(4)
P1 P 0.91576(3) 0.28923(3) 0.15138(3)
N1 N 0.98000(11) 0.33927(12) 0.01621(11)
C1 C 0.93618(12) 0.23989(11) 0.21140(12)
H1 H 0.93400 0.26590 0.24510
C2 C 0.90495(19) 0.17005(19) 0.31620(15)
H2 H 0.88990 0.20410 0.33500
H3 H 0.94580 0.16670 0.32420
H4 H 0.88510 0.13630 0.33060
C3 C 0.91822(17) 0.10833(14) 0.20289(17)
H5 H 0.89510 0.07650 0.21670
H6 H 0.95830 0.10160 0.21250
H7 H 0.91420 0.11150 0.16150
C4 C 0.81431(15) 0.17780(15) 0.23068(18)
H8 H 0.79750 0.15020 0.25710
H9 H 0.80330 0.16810 0.19160
H10 H 0.80050 0.21610 0.23990
C5 C 1.03731(16) 0.18207(16) 0.14345(18)
H11 H 1.01470 0.19330 0.11030
H12 H 1.03070 0.14170 0.15170
H13 H 1.07780 0.18820 0.13540
C6 C 1.04355(16) 0.18671(17) 0.27067(17)
H14 H 1.02460 0.14970 0.27350
H15 H 1.03580 0.20900 0.30510
H16 H 1.08470 0.18100 0.26680
C7 C 1.05448(16) 0.29574(16) 0.20480(18)
H17 H 1.09560 0.28880 0.20520
H18 H 1.04390 0.31830 0.23820
H19 H 1.04420 0.31650 0.17010
C8 C 0.90534(12) 0.24114(11) 0.08962(12)
C9 C 0.86135(14) 0.20096(12) 0.08822(14)
H20 H 0.83520 0.19940 0.11900
C10 C 0.85485(17) 0.16348(15) 0.04325(17)
H21 H 0.82440 0.13690 0.04340
C11 C 0.89260(19) 0.16460(17) -0.00189(17)
H22 H 0.88870 0.13860 -0.03260
C12 C 0.93587(17) 0.20399(15) -0.00147(15)
H23 H 0.96190 0.20470 -0.03240
C13 C 0.94279(13) 0.24276(12) 0.04270(12)
C14 C 0.99300(13) 0.28268(13) 0.03989(13)
H24 H 1.00850 0.28760 0.07880
H25 H 1.02310 0.26480 0.01640
C15 C 1.03105(16) 0.37408(17) 0.02015(18)
H26 H 1.06120 0.35720 -0.00330
H27 H 1.04360 0.37590 0.05990
H28 H 1.02270 0.41260 0.00650
C16 C 0.96272(16) 0.33483(17) -0.04341(14)
H29 H 0.95430 0.37290 -0.05830
H30 H 0.92870 0.31090 -0.04630
H31 H 0.99360 0.31770 -0.06560
Si1J Si 0.67590(4) 0.26278(3) 0.10630(4)
Si1H Si 0.76278(4) 0.39370(3) 0.32410(4)
Si2J Si 0.72601(4) 0.29353(4) -0.01585(4)
Si2H Si 0.79353(4) 0.51585(4) 0.27399(4)
P1H P 0.84862(3) 0.41576(3) 0.21077(3)
P1J P 0.78923(3) 0.34862(3) 0.08424(3)
N1J N 0.83927(11) 0.48379(12) 0.02000(11)
N1H N 0.98379(11) 0.48000(12) 0.16073(11)
C1J C 0.73989(12) 0.28860(11) 0.06382(12)
C1H C 0.78860(12) 0.43618(11) 0.26011(12)
H1J H 0.76590 0.25490 0.06600
H1H H 0.75490 0.43400 0.23410
C2J C 0.67005(19) 0.18380(19) 0.09505(15)
C2H C 0.68380(19) 0.40495(19) 0.32995(15)
H2J H 0.70410 0.16500 0.11010
H2H H 0.66500 0.38990 0.29590
H3J H 0.66670 0.17580 0.05420
H3H H 0.67580 0.44580 0.33330
H4J H 0.63630 0.16940 0.11490
H4H H 0.66940 0.38510 0.36370
C3J C 0.60833(17) 0.29711(14) 0.08178(17)
C3H C 0.79711(17) 0.41822(14) 0.39167(17)
H5J H 0.57650 0.28330 0.10490
H5H H 0.78330 0.39510 0.42350
H6J H 0.60160 0.28750 0.04170
H6H H 0.78750 0.45830 0.39840
H7J H 0.61150 0.33850 0.08580
H7H H 0.83850 0.41420 0.38850
C4J C 0.67780(15) 0.26932(15) 0.18569(18)
C4H C 0.76932(15) 0.31431(15) 0.32220(18)
H8J H 0.65020 0.24290 0.20250
H8H H 0.74290 0.29750 0.34980
H9J H 0.66810 0.30840 0.19670
H9H H 0.80840 0.30330 0.33190
H10J H 0.71610 0.26010 0.19950
H10H H 0.76010 0.30050 0.28390
C5J C 0.68207(16) 0.35655(16) -0.03731(18)
C5H C 0.85655(16) 0.53731(16) 0.31793(18)
H11J H 0.69330 0.38970 -0.01470
H11H H 0.88970 0.51470 0.30670
H12J H 0.64170 0.34830 -0.03070
H12H H 0.84830 0.53070 0.35830
H13J H 0.68820 0.36460 -0.07780
H13H H 0.86460 0.57780 0.31180
C6J C 0.68671(16) 0.22933(17) -0.04355(17)
C6H C 0.72933(16) 0.54355(17) 0.31329(17)
H14J H 0.64970 0.22650 -0.02460
H14H H 0.72650 0.52460 0.35030
H15J H 0.70900 0.19490 -0.03580
H15H H 0.69490 0.53580 0.29100
H16J H 0.68100 0.23320 -0.08470
H16H H 0.73320 0.58470 0.31900
C7J C 0.79574(16) 0.29520(16) -0.05448(18)
C7H C 0.79520(16) 0.55448(16) 0.20426(18)
H17J H 0.78880 0.29480 -0.09560
H17H H 0.79480 0.59560 0.21120
H18J H 0.81830 0.26180 -0.04390
H18H H 0.76180 0.54390 0.18170
H19J H 0.81650 0.32990 -0.04420
H19H H 0.82990 0.54420 0.18350
C8J C 0.74114(12) 0.41038(11) 0.09466(12)
C8H C 0.91038(12) 0.40534(11) 0.25886(12)
C9J C 0.70096(14) 0.41178(12) 0.13865(14)
C9H C 0.91178(14) 0.36135(12) 0.29904(14)
H20J H 0.69940 0.38100 0.16480
H20H H 0.88100 0.33520 0.30060
C10J C 0.66348(17) 0.45675(15) 0.14515(17)
C10H C 0.95675(17) 0.35485(15) 0.33652(17)
H21J H 0.63690 0.45660 0.17560
H21H H 0.95660 0.32440 0.36310
C11J C 0.66460(19) 0.50189(17) 0.10740(17)
C11H C 1.00189(19) 0.39260(17) 0.33540(17)
H22J H 0.63860 0.53260 0.11130
H22H H 1.03260 0.38870 0.36140
C12J C 0.70399(17) 0.50147(15) 0.06413(15)
C12H C 1.00147(17) 0.43587(15) 0.29601(15)
H23J H 0.70470 0.53240 0.03810
H23H H 1.03240 0.46190 0.29530
C13J C 0.74276(13) 0.45730(12) 0.05721(12)
C13H C 0.95730(13) 0.44279(12) 0.25724(12)
C14J C 0.78268(13) 0.46011(13) 0.00700(13)
C14H C 0.96011(13) 0.49300(13) 0.21732(13)
H24J H 0.78760 0.42120 -0.00850
H24H H 0.92120 0.50850 0.21240
H25J H 0.76480 0.48360 -0.02310
H25H H 0.98360 0.52310 0.23520
C15J C 0.87408(16) 0.47985(17) -0.03105(18)
C15H C 0.97985(16) 0.53105(17) 0.12592(18)
H26J H 0.85720 0.50330 -0.06120
H26H H 1.00330 0.56120 0.14280
H27J H 0.87590 0.44010 -0.04360
H27H H 0.94010 0.54360 0.12410
H28J H 0.91260 0.49350 -0.02270
H28H H 0.99350 0.52270 0.08740
C16J C 0.83483(16) 0.54341(17) 0.03728(14)
C16H C 1.04341(16) 0.46272(17) 0.16517(14)
H29J H 0.87290 0.55830 0.04570
H29H H 1.05830 0.45430 0.12710
H30J H 0.81090 0.54630 0.07130
H30H H 1.04630 0.42870 0.18910
H31J H 0.81770 0.56560 0.00640
H31H H 1.06560 0.49360 0.18230
#END

data_CSD_CIF_LAXTAF
_audit_creation_date 1994-04-11
_audit_creation_method CSD-ConQuest-V1
_database_code_CSD LAXTAF
_chemical_formula_sum 'C8 H24 N2 Te2'
_chemical_formula_moiety
;
2(C4 H12 N1 1+),Te2 2-
;
_journal_coden_Cambridge 9
_journal_volume 32
_journal_year 1993
_journal_page_first 4378
_journal_name_full 'Inorg.Chem. '
loop_
_publ_author_name
"R.J.Batchelor"
"F.W.B.Einstein"
"I.D.Gay"
"C.H.W.Jones"
"R.D.Sharma"
_chemical_name_systematic
;
bis(Tetramethylammonium) di-tellurium
;
_cell_volume   1520.478
_exptl_crystal_density_diffrn 1.763
_diffrn_ambient_temperature ?
_diffrn_special_details
;
The study was carried out at room temperature,in the range 283-303K

;
#These two values have been output from a single CSD field.
_refine_ls_R_factor_gt 0.018
_refine_ls_wR_factor_gt 0.018
_symmetry_cell_setting cubic
_symmetry_space_group_name_H-M 'P a 3'
_symmetry_Int_Tables_number 205
loop_
_symmetry_equiv_pos_site_id
_symmetry_equiv_pos_as_xyz
1 x,y,z
2 z,x,y
3 y,z,x
4 1/2+x,y,1/2-z
5 1/2+z,x,1/2-y
6 1/2+y,z,1/2-x
7 1/2-x,1/2+y,z
8 1/2-z,1/2+x,y
9 1/2-y,1/2+z,x
10 -x,1/2+y,1/2-z
11 -z,1/2+x,1/2-y
12 -y,1/2+z,1/2-x
13 -x,-y,-z
14 -z,-x,-y
15 -y,-z,-x
16 -1/2-x,-y,-1/2+z
17 -1/2-z,-x,-1/2+y
18 -1/2-y,-z,-1/2+x
19 -1/2+x,-1/2-y,-z
20 -1/2+z,-1/2-x,-y
21 -1/2+y,-1/2-z,-x
22 x,-1/2-y,-1/2+z
23 z,-1/2-x,-1/2+y
24 y,-1/2-z,-1/2+x
_cell_length_a 11.499(1)
_cell_length_b 11.499(1)
_cell_length_c 11.499(1)
_cell_angle_alpha 90
_cell_angle_beta 90
_cell_angle_gamma 90
_cell_formula_units_Z 4
loop_
_atom_type_symbol
_atom_type_radius_bond
C 0.68
H 0.23
N 0.68
Te 1.47
loop_
_atom_site_label
_atom_site_type_symbol
_atom_site_fract_x
_atom_site_fract_y
_atom_site_fract_z
Te1 Te 0.06871(1) 0.06871(1) 0.06871(1)
N1 N 0.2855(2) 0.2855(2) 0.2855(2)
C1 C 0.3606(3) 0.3606(3) 0.3606(3)
C2 C 0.3572(3) 0.2346(3) 0.1893(3)
H1 H 0.4189(20) 0.3279(25) 0.3976(26)
H2 H 0.4202(25) 0.1860(26) 0.2264(30)
H3 H 0.3144(26) 0.1759(25) 0.1409(27)
H4 H 0.3879(26) 0.2960(25) 0.1491(29)
Te1L Te -0.06871(1) -0.06871(1) -0.06871(1)
C2A C 0.1893(3) 0.3572(3) 0.2346(3)
C2B C 0.2346(3) 0.1893(3) 0.3572(3)
H1A H 0.3976(20) 0.4189(25) 0.3279(26)
H1B H 0.3279(20) 0.3976(25) 0.4189(26)
H2A H 0.2264(25) 0.4202(26) 0.186(3)
H3A H 0.1409(26) 0.3144(25) 0.1759(27)
H4A H 0.1491(26) 0.3879(25) 0.2960(29)
H2B H 0.1860(25) 0.2264(26) 0.4202(30)
H3B H 0.1759(26) 0.1409(25) 0.3144(27)
H4B H 0.2960(26) 0.1491(25) 0.3879(29)
#END

data_CSD_CIF_LAZSOX
_audit_creation_date 2017-08-22
_audit_creation_method CSD-ConQuest-V1
_database_code_CSD LAZSOX
_database_code_depnum_ccdc_archive 'CCDC 1559847'
_chemical_formula_sum 'C30 H68 B12 Cl12 N8 P2'
_chemical_formula_moiety
;
2(C15 H34 N4 P1 1+),B12 Cl12 2-
;
_journal_coden_Cambridge 9
_journal_volume 56
_journal_year 2017
_journal_page_first 10748
_journal_name_full 'Inorg.Chem. '
loop_
_publ_author_name
"S.Mummadi"
"D.Kenefake"
"Rony Diaz"
"D.K.Unruh"
"C.Krempner"
_chemical_name_systematic
;
bis((tris(2-(isopropylamino)ethyl)amine)phosphonium) 
dodecachloro-closo-dodecaborate
;
_cell_volume   5636.236
_exptl_crystal_colour 'colorless'
_exptl_crystal_density_diffrn 1.365
_exptl_special_details
;
, Air-sensitive

;
_exptl_crystal_description 'block'
_diffrn_ambient_temperature 100
#These two values have been output from a single CSD field.
_refine_ls_R_factor_gt 0.0251
_refine_ls_wR_factor_gt 0.0251
_symmetry_cell_setting cubic
_symmetry_space_group_name_H-M 'P a -3'
_symmetry_Int_Tables_number 205
loop_
_symmetry_equiv_pos_site_id
_symmetry_equiv_pos_as_xyz
1 x,y,z
2 1/2-x,-y,1/2+z
3 -x,1/2+y,1/2-z
4 1/2+x,1/2-y,-z
5 z,x,y
6 1/2+z,1/2-x,-y
7 1/2-z,-x,1/2+y
8 -z,1/2+x,1/2-y
9 y,z,x
10 -y,1/2+z,1/2-x
11 1/2+y,1/2-z,-x
12 1/2-y,-z,1/2+x
13 -x,-y,-z
14 -1/2+x,y,-1/2-z
15 x,-1/2-y,-1/2+z
16 -1/2-x,-1/2+y,z
17 -z,-x,-y
18 -1/2-z,-1/2+x,y
19 -1/2+z,x,-1/2-y
20 z,-1/2-x,-1/2+y
21 -y,-z,-x
22 y,-1/2-z,-1/2+x
23 -1/2-y,-1/2+z,x
24 -1/2+y,z,-1/2-x
_cell_length_a 17.7963(2)
_cell_length_b 17.7963(2)
_cell_length_c 17.7963(2)
_cell_angle_alpha 90
_cell_angle_beta 90
_cell_angle_gamma 90
_cell_formula_units_Z 4
loop_
_atom_type_symbol
_atom_type_radius_bond
C 0.68
H 0.23
B 0.83
Cl 0.99
N 0.68
P 1.05
loop_
_atom_site_label
_atom_site_type_symbol
_atom_site_fract_x
_atom_site_fract_y
_atom_site_fract_z
Cl1 Cl 0.40867(2) 0.17250(2) 0.51769(2)
Cl2 Cl 0.49562(2) 0.11532(2) 0.34143(2)
B1 B 0.45573(8) 0.08407(8) 0.50882(8)
B2 B 0.49820(8) 0.05584(8) 0.42253(8)
P1 P 0.22688(2) 0.27312(2) 0.72688(2)
H1 H 0.1851(9) 0.3149(9) 0.6851(9)
N1 N 0.29079(6) 0.20921(6) 0.79079(6)
N2 N 0.30605(6) 0.29674(6) 0.68193(6)
C1 C 0.35822(7) 0.19120(7) 0.74504(7)
H2 H 0.34720 0.15010 0.70920
H3 H 0.40040 0.17550 0.77770
C2 C 0.37772(7) 0.26308(7) 0.70324(7)
H4 H 0.40650 0.29760 0.73600
H5 H 0.40820 0.25180 0.65810
C3 C 0.30854(8) 0.36685(7) 0.63765(8)
H6 H 0.25550 0.38470 0.63230
C4 C 0.35164(10) 0.42872(8) 0.67787(10)
H7 H 0.33100 0.43560 0.72840
H8 H 0.34700 0.47570 0.64960
H9 H 0.40480 0.41470 0.68150
C5 C 0.33828(11) 0.35304(9) 0.55865(9)
H10 H 0.39120 0.33800 0.56130
H11 H 0.33380 0.39920 0.52900
H12 H 0.30900 0.31300 0.53480
Cl1G Cl 0.48231(2) -0.09133(2) 0.32750(2)
Cl2G Cl 0.65857(2) -0.00438(2) 0.38468(2)
B1G B 0.49118(8) -0.04427(8) 0.41593(8)
B2G B 0.57747(8) -0.00180(8) 0.44416(8)
Cl1J Cl 0.67250(2) -0.01769(2) 0.59133(2)
Cl2J Cl 0.61532(2) 0.15857(2) 0.50438(2)
B1J B 0.58407(8) -0.00882(8) 0.54427(8)
B2J B 0.55584(8) 0.07747(8) 0.50180(8)
Cl1L Cl 0.59133(2) -0.17250(2) 0.48231(2)
Cl2L Cl 0.50438(2) -0.11532(2) 0.65857(2)
B1L B 0.54427(8) -0.08407(8) 0.49118(8)
B2L B 0.50180(8) -0.05584(8) 0.57747(8)
Cl1S Cl 0.51769(2) 0.09133(2) 0.67250(2)
Cl2S Cl 0.34143(2) 0.00438(2) 0.61532(2)
B1S B 0.50882(8) 0.04427(8) 0.58407(8)
B2S B 0.42253(8) 0.00180(8) 0.55584(8)
Cl1V Cl 0.32750(2) 0.01769(2) 0.40867(2)
Cl2V Cl 0.38468(2) -0.15857(2) 0.49562(2)
B1V B 0.41593(8) 0.00882(8) 0.45573(8)
B2V B 0.44416(8) -0.07747(8) 0.49820(8)
N2E N 0.18193(6) 0.19395(6) 0.70326(6)
C1E C 0.24504(7) 0.14178(7) 0.80880(7)
H2E H 0.20920 0.15280 0.84990
H3E H 0.27770 0.09960 0.82450
C2E C 0.20324(7) 0.12228(7) 0.73692(7)
H4E H 0.23600 0.09350 0.70240
H5E H 0.15810 0.09180 0.74820
C3E C 0.13765(8) 0.19146(7) 0.63315(8)
H6E H 0.13230 0.24450 0.61530
C4E C 0.17787(10) 0.14836(8) 0.57128(10)
H7E H 0.22840 0.16900 0.56440
H8E H 0.14960 0.15300 0.52430
H9E H 0.18150 0.09520 0.58530
C5E C 0.05865(11) 0.16172(9) 0.64696(9)
H10E H 0.06130 0.10880 0.66200
H11E H 0.02900 0.16620 0.60080
H12E H 0.03480 0.19100 0.68700
N2K N 0.20326(6) 0.31807(6) 0.80605(6)
C1K C 0.30880(7) 0.25496(7) 0.85822(7)
H2K H 0.34990 0.29080 0.84720
H3K H 0.32450 0.22230 0.90040
C2K C 0.23692(7) 0.29676(7) 0.87772(7)
H4K H 0.20240 0.26400 0.90650
H5K H 0.24820 0.34190 0.90820
C3K C 0.13315(8) 0.36235(7) 0.80854(8)
H6K H 0.11530 0.36770 0.75550
C4K C 0.07128(10) 0.32213(8) 0.85164(10)
H7K H 0.06440 0.27160 0.83100
H8K H 0.02430 0.35040 0.84700
H9K H 0.08530 0.31850 0.90480
C5K C 0.14696(11) 0.44135(9) 0.83828(9)
H10K H 0.16200 0.43870 0.89120
H11K H 0.10080 0.47100 0.83380
H12K H 0.18700 0.46520 0.80900
#END

data_CSD_CIF_LEPXEJ
_audit_creation_date 1994-10-12
_audit_creation_method CSD-ConQuest-V1
_database_code_CSD LEPXEJ
_database_code_depnum_ccdc_archive 'CCDC 1205665'
_chemical_formula_sum 'C9 H27 Br1 Cu1 P3'
_chemical_formula_moiety
;
C9 H27 Br1 Cu1 P3
;
_journal_coden_Cambridge 155
_journal_volume 207
_journal_year 1993
_journal_page_first 59
_journal_name_full 'Inorg.Chim.Acta '
loop_
_publ_author_name
"J.C.Negrel"
"M.Gony"
"M.Chanon"
"R.Lai"
_chemical_name_systematic
;
Bromo-tris(trimethylphosphine)-copper(i)
;
_cell_volume   3903.339
_exptl_crystal_density_diffrn 1.26
_diffrn_ambient_temperature ?
_diffrn_special_details
;
The study was carried out at room temperature,in the range 283-303K

;
#These two values have been output from a single CSD field.
_refine_ls_R_factor_gt 0.0395
_refine_ls_wR_factor_gt 0.0395
_symmetry_cell_setting cubic
_symmetry_space_group_name_H-M 'P a 3'
_symmetry_Int_Tables_number 205
loop_
_symmetry_equiv_pos_site_id
_symmetry_equiv_pos_as_xyz
1 x,y,z
2 z,x,y
3 y,z,x
4 -x,1/2+y,1/2-z
5 -z,1/2+x,1/2-y
6 -y,1/2+z,1/2-x
7 1/2-x,-y,1/2+z
8 1/2-z,-x,1/2+y
9 1/2-y,-z,1/2+x
10 1/2+x,1/2-y,-z
11 1/2+z,1/2-x,-y
12 1/2+y,1/2-z,-x
13 -x,-y,-z
14 -z,-x,-y
15 -y,-z,-x
16 x,-1/2-y,-1/2+z
17 z,-1/2-x,-1/2+y
18 y,-1/2-z,-1/2+x
19 -1/2+x,y,-1/2-z
20 -1/2+z,x,-1/2-y
21 -1/2+y,z,-1/2-x
22 -1/2-x,-1/2+y,z
23 -1/2-z,-1/2+x,y
24 -1/2-y,-1/2+z,x
_cell_length_a 15.7451
_cell_length_b 15.7451
_cell_length_c 15.7451
_cell_angle_alpha 90
_cell_angle_beta 90
_cell_angle_gamma 90
_cell_formula_units_Z 8
loop_
_atom_type_symbol
_atom_type_radius_bond
C 0.68
H 0.23
Br 1.21
Cu 1.52
P 1.05
loop_
_atom_site_label
_atom_site_type_symbol
_atom_site_fract_x
_atom_site_fract_y
_atom_site_fract_z
P1 P 0.1860(1) 0.0141(1) 0.1807(1)
Br1 Br 0.23810 0.23812(4) 0.23810
Cu1 Cu 0.14630 0.14635(5) 0.14630
C1 C 0.1295(6) -0.0734(5) 0.1310(6)
C2 C 0.2959(6) -0.0144(6) 0.1581(8)
C3 C 0.1746(8) -0.0139(6) 0.2899(6)
H1 H 0.06630 -0.06600 0.13420
H2 H 0.14410 -0.07620 0.06640
H3 H 0.14560 -0.12950 0.15530
H4 H 0.31190 -0.00260 0.10040
H5 H 0.33490 0.01680 0.19960
H6 H 0.30410 -0.07800 0.17130
H7 H 0.11470 -0.00210 0.31240
H8 H 0.18460 -0.07780 0.30010
H9 H 0.21540 0.01700 0.32850
P1A P 0.1807(1) 0.1860(1) 0.0141(1)
P1B P 0.0141(1) 0.1807(1) 0.1860(1)
C1A C 0.1310(6) 0.1295(5) -0.0734(6)
C2A C 0.1581(6) 0.2959(6) -0.0144(8)
C3A C 0.2899(8) 0.1746(6) -0.0139(6)
C1B C -0.0734(6) 0.1310(5) 0.1295(6)
C2B C -0.0144(6) 0.1581(6) 0.2959(8)
C3B C -0.0139(8) 0.2899(6) 0.1746(6)
H1A H 0.13420 0.06630 -0.06600
H2A H 0.06640 0.14410 -0.07620
H3A H 0.15530 0.14560 -0.12950
H4A H 0.10040 0.31190 -0.00260
H5A H 0.19960 0.33490 0.01680
H6A H 0.17130 0.30410 -0.07800
H7A H 0.31240 0.11470 -0.00210
H8A H 0.30010 0.18460 -0.07780
H9A H 0.32850 0.21540 0.01700
H1B H -0.06600 0.13420 0.06630
H2B H -0.07620 0.06640 0.14410
H3B H -0.12950 0.15530 0.14560
H4B H -0.00260 0.10040 0.31190
H5B H 0.01680 0.19960 0.33490
H6B H -0.07800 0.17130 0.30410
H7B H -0.00210 0.31240 0.11470
H8B H -0.07780 0.30010 0.18460
H9B H 0.01700 0.32850 0.21540
#END

data_CSD_CIF_LIBQOF01
_audit_creation_date 2021-05-17
_audit_creation_method CSD-ConQuest-V1
_database_code_CSD LIBQOF01
_database_code_depnum_ccdc_archive 'CCDC 2025024'
_chemical_formula_sum 'C6 H18 Br6 S2 Sn1'
_chemical_formula_moiety
;
2(C3 H9 S1 1+),Br6 Sn1 2-
;
_journal_coden_Cambridge 9
_journal_volume 60
_journal_year 2021
_journal_page_first 8093
_journal_name_full 'Inorg.Chem. '
loop_
_publ_author_name
"T.A.Gully"
"K.Sonnenberg"
"J.Bader"
"S.Riedel"
_chemical_name_systematic
;
bis(trimethylsulfanium) hexabromo-tin(iv)
;
_cell_volume   2060.066
_exptl_crystal_colour 'colorless'
_exptl_crystal_density_diffrn 2.426
_exptl_crystal_description 'block'
_exptl_crystal_preparation 'acetonitrile'
_diffrn_ambient_temperature 101.5
#These two values have been output from a single CSD field.
_refine_ls_R_factor_gt 0.0233
_refine_ls_wR_factor_gt 0.0233
_symmetry_cell_setting cubic
_symmetry_space_group_name_H-M 'P a -3'
_symmetry_Int_Tables_number 205
loop_
_symmetry_equiv_pos_site_id
_symmetry_equiv_pos_as_xyz
1 x,y,z
2 1/2-x,-y,1/2+z
3 -x,1/2+y,1/2-z
4 1/2+x,1/2-y,-z
5 z,x,y
6 1/2+z,1/2-x,-y
7 1/2-z,-x,1/2+y
8 -z,1/2+x,1/2-y
9 y,z,x
10 -y,1/2+z,1/2-x
11 1/2+y,1/2-z,-x
12 1/2-y,-z,1/2+x
13 -x,-y,-z
14 -1/2+x,y,-1/2-z
15 x,-1/2-y,-1/2+z
16 -1/2-x,-1/2+y,z
17 -z,-x,-y
18 -1/2-z,-1/2+x,y
19 -1/2+z,x,-1/2-y
20 z,-1/2-x,-1/2+y
21 -y,-z,-x
22 y,-1/2-z,-1/2+x
23 -1/2-y,-1/2+z,x
24 -1/2+y,z,-1/2-x
_cell_length_a 12.7241(7)
_cell_length_b 12.7241(7)
_cell_length_c 12.7241(7)
_cell_angle_alpha 90
_cell_angle_beta 90
_cell_angle_gamma 90
_cell_formula_units_Z 4
loop_
_atom_type_symbol
_atom_type_radius_bond
C 0.68
H 0.23
Br 1.21
S 1.02
Sn 1.39
loop_
_atom_site_label
_atom_site_type_symbol
_atom_site_fract_x
_atom_site_fract_y
_atom_site_fract_z
Sn1 Sn 0.50000 0.50000 0.50000
Br1 Br 0.46271(2) 0.69632(2) 0.54297(2)
S1 S 0.26989(5) 0.76989(5) 0.73011(5)
C1 C 0.1674(3) 0.6989(2) 0.6656(3)
H1 H 0.19810 0.65140 0.61330
H2 H 0.12000 0.74850 0.63050
H3 H 0.12800 0.65790 0.71750
Br1D Br 0.54297(2) 0.46271(2) 0.69632(2)
Br1H Br 0.69632(2) 0.54297(2) 0.46271(2)
Br1L Br 0.53729(2) 0.30368(2) 0.45703(2)
Br1P Br 0.45703(2) 0.53729(2) 0.30368(2)
Br1T Br 0.30368(2) 0.45703(2) 0.53729(2)
C1G C 0.3344(3) 0.6674(2) 0.8011(3)
H1G H 0.38670 0.69810 0.84860
H2G H 0.36950 0.62000 0.75150
H3G H 0.28250 0.62800 0.84210
C1J C 0.1989(3) 0.8344(2) 0.8326(3)
H1J H 0.15140 0.88670 0.80190
H2J H 0.24850 0.86950 0.88000
H3J H 0.15790 0.78250 0.87200
#END

data_CSD_CIF_LIMSUV
_audit_creation_date 1995-10-09
_audit_creation_method CSD-ConQuest-V1
_database_code_CSD LIMSUV
_database_code_depnum_ccdc_archive 'CCDC 1022394'
_chemical_formula_sum 'C18 H24 B2 F8 Ru1'
_chemical_formula_moiety
;
C18 H24 Ru1 2+,2(B1 F4 1-)
;
_journal_coeditor_code "IUCr MU1142"
_journal_coden_Cambridge 591
_journal_volume 51
_journal_year 1995
_journal_page_first 582
_journal_name_full 'Acta Crystallogr.,Sect.C:Cryst.Struct.Commun. '
loop_
_publ_author_name
"A.J.Blake"
"P.J.Dyson"
"R.O.Gould"
"B.F.G.Johnson"
"S.Parsons"
_chemical_name_systematic
;
bis(\h^6^-1,3,5-Trimethylbenzene)-ruthenium(ii) bis(tetrafluoroborate)
;
_cell_volume   2017.571
_exptl_crystal_colour 'Colorless'
_exptl_crystal_density_diffrn 1.696
_diffrn_ambient_temperature 150
#These two values have been output from a single CSD field.
_refine_ls_R_factor_gt 0.0412
_refine_ls_wR_factor_gt 0.0412
_symmetry_cell_setting cubic
_symmetry_space_group_name_H-M 'P a 3'
_symmetry_Int_Tables_number 205
loop_
_symmetry_equiv_pos_site_id
_symmetry_equiv_pos_as_xyz
1 x,y,z
2 1/2-x,-y,1/2+z
3 1/2+x,1/2-y,-z
4 z,x,y
5 -x,1/2+y,1/2-z
6 1/2-z,-x,1/2+y
7 1/2+z,1/2-x,-y
8 -z,1/2+x,1/2-y
9 y,z,x
10 1/2+y,1/2-z,-x
11 -y,1/2+z,1/2-x
12 1/2-y,-z,1/2+x
13 -x,-y,-z
14 -1/2+x,y,-1/2-z
15 -1/2-x,-1/2+y,z
16 -z,-x,-y
17 x,-1/2-y,-1/2+z
18 -1/2+z,x,-1/2-y
19 -1/2-z,-1/2+x,y
20 z,-1/2-x,-1/2+y
21 -y,-z,-x
22 -1/2-y,-1/2+z,x
23 y,-1/2-z,-1/2+x
24 -1/2+y,z,-1/2-x
_cell_length_a 12.636(3)
_cell_length_b 12.636(3)
_cell_length_c 12.636(3)
_cell_angle_alpha 90
_cell_angle_beta 90
_cell_angle_gamma 90
_cell_formula_units_Z 4
loop_
_atom_type_symbol
_atom_type_radius_bond
C 0.68
H 0.23
B 0.83
F 0.64
Ru 1.40
loop_
_atom_site_label
_atom_site_type_symbol
_atom_site_fract_x
_atom_site_fract_y
_atom_site_fract_z
Ru1 Ru 0.50000 0.50000 0.50000
C1 C 0.4878(4) 0.6198(4) 0.6268(4)
H1 H 0.4246(4) 0.6459(4) 0.6580(4)
C2 C 0.5376(4) 0.5295(5) 0.6716(4)
C3 C 0.4915(4) 0.4767(5) 0.7675(5)
H2 H 0.5292(18) 0.5008(21) 0.8309(5)
H3 H 0.4989(25) 0.3998(6) 0.7607(13)
H4 H 0.4164(8) 0.4951(22) 0.7735(16)
F1 F 0.2887(4) 0.2108(3) 0.3554(3)
F2 F 0.2010(2) 0.2010(2) 0.2010(2)
B1 B 0.2645(5) 0.2645(5) 0.2645(5)
C1L C 0.5122(4) 0.3802(4) 0.3732(4)
C1C C 0.6268(4) 0.4878(4) 0.6198(4)
C1O C 0.3732(4) 0.5122(4) 0.3802(4)
C1H C 0.6198(4) 0.6268(4) 0.4878(4)
C1T C 0.3802(4) 0.3732(4) 0.5122(4)
C2L C 0.4624(4) 0.4705(5) 0.3284(4)
C2C C 0.6716(4) 0.5376(5) 0.5295(4)
C2O C 0.3284(4) 0.4624(5) 0.4705(4)
C2H C 0.5295(4) 0.6716(5) 0.5376(4)
C2T C 0.4705(4) 0.3284(5) 0.4624(4)
H1L H 0.5754(4) 0.3541(4) 0.3420(4)
H1C H 0.6580(4) 0.4246(4) 0.6459(4)
H1O H 0.3420(4) 0.5754(4) 0.3541(4)
H1H H 0.6459(4) 0.6580(4) 0.4246(4)
H1T H 0.3541(4) 0.3420(4) 0.5754(4)
C3L C 0.5085(4) 0.5233(5) 0.2325(5)
C3C C 0.7675(4) 0.4915(5) 0.4767(5)
C3O C 0.2325(4) 0.5085(5) 0.5233(5)
C3H C 0.4767(4) 0.7675(5) 0.4915(5)
C3T C 0.5233(4) 0.2325(5) 0.5085(5)
H2L H 0.4708(18) 0.4992(21) 0.1691(5)
H3L H 0.5011(25) 0.6002(6) 0.2393(13)
H4L H 0.5836(8) 0.5049(22) 0.2265(16)
H2C H 0.8309(18) 0.5292(21) 0.5008(5)
H3C H 0.7607(25) 0.4989(6) 0.3998(13)
H4C H 0.7735(8) 0.4164(22) 0.4951(16)
H2O H 0.1691(18) 0.4708(21) 0.4992(5)
H3O H 0.2393(25) 0.5011(6) 0.6002(13)
H4O H 0.2265(8) 0.5836(22) 0.5049(16)
H2H H 0.5008(18) 0.8309(21) 0.5292(5)
H3H H 0.3998(25) 0.7607(6) 0.4989(13)
H4H H 0.4951(8) 0.7735(22) 0.4164(16)
H2T H 0.4992(18) 0.1691(21) 0.4708(5)
H3T H 0.6002(25) 0.2393(6) 0.5011(13)
H4T H 0.5049(8) 0.2265(22) 0.5836(16)
F1C F 0.3554(4) 0.2887(3) 0.2108(3)
F1H F 0.2108(4) 0.3554(3) 0.2887(3)
#END

data_CSD_CIF_LUVJIV
_audit_creation_date 2003-04-28
_audit_creation_method CSD-ConQuest-V1
_database_code_CSD LUVJIV
_database_code_depnum_ccdc_archive 'CCDC 183344'
_chemical_formula_sum 'C4 H6 Au1 F6 N2 P1'
_chemical_formula_moiety
;
C4 H6 Au1 N2 1+,F6 P1 1-
;
_journal_coden_Cambridge 4
_journal_volume 125
_journal_year 2003
_journal_page_first 1033
_journal_name_full 'J.Am.Chem.Soc. '
loop_
_publ_author_name
"R.L.White-Morris"
"M.M.Olmstead"
"A.L.Balch"
_chemical_name_systematic
;
bis(Methyl isocyanide)-gold(i) hexafluorophosphate
;
_chemical_name_common
;
Teaching Subset: Fundamental Chemistry
;
_cell_volume    943.990
_exptl_crystal_colour 'colorless'
_exptl_crystal_density_diffrn 2.984
_exptl_crystal_description 'block'
_diffrn_ambient_temperature 90
#These two values have been output from a single CSD field.
_refine_ls_R_factor_gt 0.0356
_refine_ls_wR_factor_gt 0.0356
_symmetry_cell_setting cubic
_symmetry_space_group_name_H-M 'P a -3'
_symmetry_Int_Tables_number 205
loop_
_symmetry_equiv_pos_site_id
_symmetry_equiv_pos_as_xyz
1 x,y,z
2 z,x,y
3 y,z,x
4 1/2-x,-y,1/2+z
5 -x,1/2+y,1/2-z
6 1/2+x,1/2-y,-z
7 1/2+z,1/2-x,-y
8 1/2-z,-x,1/2+y
9 -z,1/2+x,1/2-y
10 -y,1/2+z,1/2-x
11 1/2+y,1/2-z,-x
12 1/2-y,-z,1/2+x
13 -x,-y,-z
14 -z,-x,-y
15 -y,-z,-x
16 -1/2+x,y,-1/2-z
17 x,-1/2-y,-1/2+z
18 -1/2-x,-1/2+y,z
19 -1/2-z,-1/2+x,y
20 -1/2+z,x,-1/2-y
21 z,-1/2-x,-1/2+y
22 y,-1/2-z,-1/2+x
23 -1/2-y,-1/2+z,x
24 -1/2+y,z,-1/2-x
_cell_length_a 9.8097(7)
_cell_length_b 9.8097(7)
_cell_length_c 9.8097(7)
_cell_angle_alpha 90
_cell_angle_beta 90
_cell_angle_gamma 90
_cell_formula_units_Z 4
loop_
_atom_type_symbol
_atom_type_radius_bond
C 0.68
H 0.23
Au 1.50
F 0.64
N 0.68
P 1.05
loop_
_atom_site_label
_atom_site_type_symbol
_atom_site_fract_x
_atom_site_fract_y
_atom_site_fract_z
Au1 Au 0.00000 1.00000 0.50000
N1 N 0.1833(6) 0.8167(6) 0.3167(6)
C1 C 0.1169(7) 0.8831(7) 0.3831(7)
C2 C 0.2682(8) 0.7318(8) 0.2318(8)
H1 H 0.317(13) 0.666(12) 0.261(11)
P1 P 0.00000 0.50000 0.50000
F1 F -0.0380(5) 0.6558(4) 0.5321(5)
H1G H 0.239(13) 0.683(12) 0.166(11)
H1I H 0.334(13) 0.761(12) 0.183(11)
C1S C -0.1169(7) 1.1169(7) 0.6169(7)
N1S N -0.1833(6) 1.1833(6) 0.6833(6)
C2S C -0.2682(8) 1.2682(8) 0.7682(8)
H1S H -0.239(13) 1.317(12) 0.834(11)
H1U H -0.334(13) 1.239(12) 0.817(11)
H1L H -0.317(13) 1.334(12) 0.739(11)
F1R F -0.0321(5) 0.4620(4) 0.6558(5)
F1W F 0.1558(5) 0.5321(4) 0.5380(5)
F1L F 0.0380(5) 0.3442(4) 0.4679(5)
F1F F 0.0321(5) 0.5380(4) 0.3442(5)
F1K F -0.1558(5) 0.4679(4) 0.4620(5)
#END

data_CSD_CIF_MAMCOB
_audit_creation_date 1981-07-07
_audit_creation_method CSD-ConQuest-V1
_database_code_CSD MAMCOB
_database_code_depnum_ccdc_archive 'CCDC 1209267'
_chemical_formula_sum 'C10 H16 Co1 N1 O4'
_chemical_formula_moiety
;
C6 H16 N1 1+,C4 Co1 O4 1-
;
_journal_coden_Cambridge 3075
_journal_volume 1981
_journal_year 1981
_journal_page_first 181
_journal_name_full 'J.Chem.Soc.Chem.Comm. '
loop_
_publ_author_name
"F.Calderazzo"
"G.Fachinetti"
"F.Marchetti"
"P.F.Zanazzi"
_chemical_name_systematic
;
Triethylammonium tetracarbonyl-cobalt
;
_cell_volume   2674.621
_exptl_crystal_density_diffrn 1.355
_diffrn_ambient_temperature ?
_diffrn_special_details
;
The study was carried out at room temperature,in the range 283-303K

;
#These two values have been output from a single CSD field.
_refine_ls_R_factor_gt 0.032
_refine_ls_wR_factor_gt 0.032
_symmetry_cell_setting cubic
_symmetry_space_group_name_H-M 'P a 3'
_symmetry_Int_Tables_number 205
loop_
_symmetry_equiv_pos_site_id
_symmetry_equiv_pos_as_xyz
1 x,y,z
2 z,x,y
3 y,z,x
4 -x,1/2+y,1/2-z
5 -z,1/2+x,1/2-y
6 -y,1/2+z,1/2-x
7 1/2-x,-y,1/2+z
8 1/2-z,-x,1/2+y
9 1/2-y,-z,1/2+x
10 1/2+x,1/2-y,-z
11 1/2+z,1/2-x,-y
12 1/2+y,1/2-z,-x
13 -x,-y,-z
14 -z,-x,-y
15 -y,-z,-x
16 x,-1/2-y,-1/2+z
17 z,-1/2-x,-1/2+y
18 y,-1/2-z,-1/2+x
19 -1/2+x,y,-1/2-z
20 -1/2+z,x,-1/2-y
21 -1/2+y,z,-1/2-x
22 -1/2-x,-1/2+y,z
23 -1/2-z,-1/2+x,y
24 -1/2-y,-1/2+z,x
_cell_length_a 13.881(2)
_cell_length_b 13.881(2)
_cell_length_c 13.881(2)
_cell_angle_alpha 90
_cell_angle_beta 90
_cell_angle_gamma 90
_cell_formula_units_Z 8
loop_
_atom_type_symbol
_atom_type_radius_bond
C 0.68
H 0.23
Co 1.33
N 0.68
O 0.68
loop_
_atom_site_label
_atom_site_type_symbol
_atom_site_fract_x
_atom_site_fract_y
_atom_site_fract_z
Co1 Co 0.22001 0.22001 0.22001
C1 C 0.16800 0.21660 0.33570
O1 O 0.13220 0.21190 0.41010
C2 C 0.14620 0.14620 0.14620
O2 O 0.09930 0.09930 0.09930
N1 N 0.37470 0.37470 0.37470
C3 C 0.42540 0.44740 0.31090
C4 C 0.47260 0.40260 0.22440
H1 H 0.48000 0.48350 0.35300
H2 H 0.37300 0.49940 0.28630
H3 H 0.50720 0.45800 0.18210
H4 H 0.41880 0.36680 0.18110
H5 H 0.52580 0.35080 0.24780
H6 H 0.33850 0.33850 0.33850
C1A C 0.33570 0.16800 0.21660
C1B C 0.21660 0.33570 0.16800
O1A O 0.41010 0.13220 0.21190
O1B O 0.21190 0.41010 0.13220
C3A C 0.31090 0.42540 0.44740
C3B C 0.44740 0.31090 0.42540
C4A C 0.22440 0.47260 0.40260
H1A H 0.35300 0.48000 0.48350
H2A H 0.28630 0.37300 0.49940
C4B C 0.40260 0.22440 0.47260
H1B H 0.48350 0.35300 0.48000
H2B H 0.49940 0.28630 0.37300
H3A H 0.18210 0.50720 0.45800
H4A H 0.18110 0.41880 0.36680
H5A H 0.24780 0.52580 0.35080
H3B H 0.45800 0.18210 0.50720
H4B H 0.36680 0.18110 0.41880
H5B H 0.35080 0.24780 0.52580
#END

data_CSD_CIF_MASVEJ
_audit_creation_date 2012-06-01
_audit_creation_method CSD-ConQuest-V1
_database_code_CSD MASVEJ
_database_code_depnum_ccdc_archive 'CCDC 874618'
_chemical_formula_sum 'C51 H66 Cr2 N3 P4'
_chemical_formula_moiety
;
C51 H66 Cr2 N3 P4
;
_journal_coden_Cambridge 579
_journal_volume 31
_journal_year 2012
_journal_page_first 486
_journal_name_full 'Organometallics '
loop_
_publ_author_name
"I.Thapa"
"S.Gambarotta"
"I.Korobkov"
"M.Murugesu"
"P.Budzelaar"
_chemical_name_systematic
;
tris(\m~2~-(N-t-Butyl-P,P-diphenylphosphinous 
amidato))-trimethylphosphine-di-chromium
;
_cell_volume  10286.697
_exptl_crystal_colour 'brown'
_exptl_crystal_density_diffrn 1.225
_exptl_crystal_description 'block'
_diffrn_ambient_temperature 200
#These two values have been output from a single CSD field.
_refine_ls_R_factor_gt 0.0426
_refine_ls_wR_factor_gt 0.0426
_symmetry_cell_setting cubic
_symmetry_space_group_name_H-M 'P a -3'
_symmetry_Int_Tables_number 205
loop_
_symmetry_equiv_pos_site_id
_symmetry_equiv_pos_as_xyz
1 x,y,z
2 1/2-x,-y,1/2+z
3 -x,1/2+y,1/2-z
4 1/2+x,1/2-y,-z
5 z,x,y
6 1/2+z,1/2-x,-y
7 1/2-z,-x,1/2+y
8 -z,1/2+x,1/2-y
9 y,z,x
10 -y,1/2+z,1/2-x
11 1/2+y,1/2-z,-x
12 1/2-y,-z,1/2+x
13 -x,-y,-z
14 -1/2+x,y,-1/2-z
15 x,-1/2-y,-1/2+z
16 -1/2-x,-1/2+y,z
17 -z,-x,-y
18 -1/2-z,-1/2+x,y
19 -1/2+z,x,-1/2-y
20 z,-1/2-x,-1/2+y
21 -y,-z,-x
22 y,-1/2-z,-1/2+x
23 -1/2-y,-1/2+z,x
24 -1/2+y,z,-1/2-x
_cell_length_a 21.7483(6)
_cell_length_b 21.7483(6)
_cell_length_c 21.7483(6)
_cell_angle_alpha 90
_cell_angle_beta 90
_cell_angle_gamma 90
_cell_formula_units_Z 8
loop_
_atom_type_symbol
_atom_type_radius_bond
C 0.68
H 0.23
Cr 1.32
N 0.68
P 1.05
loop_
_atom_site_label
_atom_site_type_symbol
_atom_site_fract_x
_atom_site_fract_y
_atom_site_fract_z
Cr1 Cr 0.669404(11) 0.830596(11) 0.169404(11)
Cr2 Cr 0.608018(11) 0.891982(11) 0.108018(11)
N1 N 0.66771(6) 0.96285(6) 0.11222(7)
P1 P 0.722083(18) 0.928367(17) 0.152536(19)
P2 P 0.73579(2) 0.76421(2) 0.23579(2)
C1 C 0.74510(8) 0.96721(8) 0.22465(9)
C2 C 0.72244(9) 0.94135(11) 0.27887(9)
H1 H 0.69590 0.90670 0.27660
C3 C 0.73792(12) 0.96526(15) 0.33608(11)
H2 H 0.72170 0.94730 0.37240
C4 C 0.77683(15) 1.01506(15) 0.34007(13)
H3 H 0.78740 1.03160 0.37910
C5 C 0.80070(14) 1.04112(12) 0.28656(13)
H4 H 0.82790 1.07520 0.28930
C6 C 0.78498(11) 1.01751(10) 0.22939(11)
H5 H 0.80140 1.03560 0.19320
C7 C 0.79481(7) 0.93036(7) 0.10949(8)
C8 C 0.85173(8) 0.92382(9) 0.13873(10)
H6 H 0.85340 0.92220 0.18240
C9 C 0.90575(9) 0.91963(11) 0.10508(12)
H7 H 0.94410 0.91570 0.12570
C10 C 0.90385(11) 0.92117(11) 0.04181(12)
H8 H 0.94090 0.91870 0.01870
C11 C 0.84823(11) 0.92628(11) 0.01209(11)
H9 H 0.84690 0.92690 -0.03160
C12 C 0.79385(9) 0.93059(9) 0.04567(9)
H10 H 0.75570 0.93370 0.02470
C13 C 0.65949(8) 1.02885(8) 0.09724(10)
C14 C 0.63003(12) 1.0615(1) 0.15171(13)
H11 H 0.65760 1.05930 0.18730
H12 H 0.59090 1.04160 0.16180
H13 H 0.62260 1.10470 0.14110
C15 C 0.61646(11) 1.03289(10) 0.04179(12)
H14 H 0.57750 1.01230 0.05140
H15 H 0.63570 1.01280 0.00640
H16 H 0.60860 1.07620 0.03200
C16 C 0.71929(10) 1.06168(9) 0.08060(12)
H17 H 0.74760 1.05990 0.11560
H18 H 0.71050 1.10470 0.07050
H19 H 0.73810 1.04150 0.04500
C17 C 0.70615(14) 0.74579(16) 0.31183(11)
H20 H 0.66450 0.72900 0.30810
H21 H 0.70510 0.78320 0.33700
H22 H 0.73290 0.71530 0.33140
N1E N 0.61222(6) 0.83229(6) 0.03715(7)
N1K N 0.53715(6) 0.88778(6) 0.16771(7)
P1E P 0.652536(18) 0.777917(17) 0.071633(19)
P1K P 0.571633(18) 0.847464(17) 0.222083(19)
C1K C 0.53279(8) 0.77535(8) 0.24510(9)
C1E C 0.72465(8) 0.75490(8) 0.03279(9)
C2K C 0.55865(9) 0.72113(11) 0.22244(9)
C2E C 0.77887(9) 0.77756(11) 0.05865(9)
H1K H 0.59330 0.72340 0.19590
H1E H 0.77660 0.80410 0.09330
C3K C 0.53474(12) 0.66392(15) 0.23792(11)
C3E C 0.83608(12) 0.76208(15) 0.03474(11)
H2K H 0.55270 0.62760 0.22170
H2E H 0.87240 0.77830 0.05270
C4K C 0.48494(15) 0.65993(15) 0.27683(13)
C4E C 0.84007(15) 0.72317(15) -0.01506(13)
H3K H 0.46840 0.62090 0.28740
H3E H 0.87910 0.71260 -0.03160
C5K C 0.45888(14) 0.71344(12) 0.30070(13)
C5E C 0.78656(14) 0.69930(12) -0.04112(13)
H4K H 0.42480 0.71070 0.32790
H4E H 0.78930 0.67210 -0.07520
C6K C 0.48249(11) 0.77061(10) 0.28498(11)
C6E C 0.72939(11) 0.71502(10) -0.01751(11)
H5K H 0.46440 0.80680 0.30140
H5E H 0.69320 0.69860 -0.03560
C7K C 0.56964(7) 0.89051(7) 0.29481(8)
C7E C 0.60949(7) 0.70519(7) 0.06964(8)
C8K C 0.57618(8) 0.86127(9) 0.35173(10)
C8E C 0.63873(8) 0.64827(9) 0.07618(10)
H6K H 0.57780 0.81760 0.35340
H6E H 0.68240 0.64660 0.07780
C9K C 0.58037(9) 0.89492(11) 0.40575(12)
C9E C 0.60508(9) 0.59425(11) 0.08037(12)
H7K H 0.58430 0.87430 0.44410
H7E H 0.62570 0.55590 0.08430
C10K C 0.57883(11) 0.95819(11) 0.40385(12)
C10E C 0.54181(11) 0.59615(11) 0.07883(12)
H8K H 0.58130 0.98130 0.44090
H8E H 0.51870 0.55910 0.08130
C11K C 0.57372(11) 0.98791(11) 0.34823(11)
C11E C 0.51209(11) 0.65177(11) 0.07372(11)
H9K H 0.57310 1.03160 0.34690
H9E H 0.46840 0.65310 0.07310
C12K C 0.56941(9) 0.95433(9) 0.29385(9)
C12E C 0.54567(9) 0.70615(9) 0.06941(9)
H10K H 0.56630 0.97530 0.25570
H10E H 0.52470 0.74430 0.06630
C13K C 0.47115(8) 0.90276(8) 0.15949(10)
C13E C 0.59724(8) 0.84051(8) -0.02885(10)
C14K C 0.43850(12) 0.84829(10) 0.13003(13)
C14E C 0.65171(12) 0.86997(10) -0.06150(13)
H11K H 0.44070 0.81270 0.15760
H11E H 0.68730 0.84240 -0.05930
H12K H 0.45840 0.83820 0.09090
H12E H 0.66180 0.90910 -0.04160
H13K H 0.39530 0.85890 0.12260
H13E H 0.64110 0.87740 -0.10470
C15K C 0.46711(11) 0.95821(10) 0.11646(12)
C15E C 0.54179(11) 0.88354(10) -0.03289(12)
H14K H 0.48770 0.94860 0.07750
H14E H 0.55140 0.92250 -0.01230
H15K H 0.48720 0.99360 0.13570
H15E H 0.50640 0.86430 -0.01280
H16K H 0.42380 0.96800 0.10860
H16E H 0.53200 0.89140 -0.07620
C16K C 0.43832(10) 0.91940(9) 0.21929(12)
C16E C 0.5806(1) 0.78071(9) -0.06168(12)
H17K H 0.44010 0.88440 0.24760
H17E H 0.61560 0.75240 -0.05990
H18K H 0.39530 0.92950 0.21050
H18E H 0.57050 0.78950 -0.10470
H19K H 0.45850 0.95500 0.23810
H19E H 0.54500 0.76190 -0.04150
C17E C 0.81183(14) 0.79385(16) 0.25421(11)
C17K C 0.75421(14) 0.68817(16) 0.20615(11)
H20E H 0.80810 0.83550 0.27100
H20K H 0.77100 0.69190 0.16450
H21E H 0.83700 0.79490 0.21680
H21K H 0.71680 0.66300 0.20510
H22E H 0.83140 0.76710 0.28470
H22K H 0.78470 0.66860 0.23290
#END

data_CSD_CIF_MUNMUD
_audit_creation_date 2003-02-20
_audit_creation_method CSD-ConQuest-V1
_database_code_CSD MUNMUD
_database_code_depnum_ccdc_archive 'CCDC 191922'
_chemical_formula_sum 'C30 H30 F21 O6 Sb1'
_chemical_formula_moiety
;
C30 H30 F21 O6 Sb1
;
_journal_coden_Cambridge 186
_journal_year 2002
_journal_page_first 4416
_journal_name_full 'J.Chem.Soc.,Dalton Trans. '
loop_
_publ_author_name
"G.A.Horley"
"M.F.Mahon"
"M.Mazhar"
"K.C.Molloy"
"P.W.Haycock"
"C.P.Myers"
_chemical_name_systematic
;
tris(2,2-Dimethyl-6,6,7,7,8,8,8-heptafluoro-3,5-heptanedionato-O,O')-antimony(
iii)
;
_chemical_melting_point 367.15
_cell_volume   7783.581
_exptl_crystal_colour 'colorless'
_exptl_crystal_density_diffrn 1.719
_exptl_special_details
;
air-sensitive

;
_exptl_crystal_description 'Irregular'
_diffrn_ambient_temperature 170
#These two values have been output from a single CSD field.
_refine_ls_R_factor_gt 0.0452
_refine_ls_wR_factor_gt 0.0452
_symmetry_cell_setting cubic
_symmetry_space_group_name_H-M 'P a -3'
_symmetry_Int_Tables_number 205
loop_
_symmetry_equiv_pos_site_id
_symmetry_equiv_pos_as_xyz
1 x,y,z
2 z,x,y
3 y,z,x
4 1/2+x,y,1/2-z
5 x,1/2-y,1/2+z
6 1/2-x,1/2+y,z
7 1/2-z,1/2+x,y
8 1/2+z,x,1/2-y
9 z,1/2-x,1/2+y
10 y,1/2-z,1/2+x
11 1/2-y,1/2+z,x
12 1/2+y,z,1/2-x
13 -x,-y,-z
14 -z,-x,-y
15 -y,-z,-x
16 -1/2-x,-y,-1/2+z
17 -x,-1/2+y,-1/2-z
18 -1/2+x,-1/2-y,-z
19 -1/2+z,-1/2-x,-y
20 -1/2-z,-x,-1/2+y
21 -z,-1/2+x,-1/2-y
22 -y,-1/2+z,-1/2-x
23 -1/2+y,-1/2-z,-x
24 -1/2-y,-z,-1/2+x
_cell_length_a 19.8180(3)
_cell_length_b 19.8180(3)
_cell_length_c 19.8180(3)
_cell_angle_alpha 90
_cell_angle_beta 90
_cell_angle_gamma 90
_cell_formula_units_Z 8
loop_
_atom_type_symbol
_atom_type_radius_bond
C 0.68
H 0.23
F 0.64
O 0.68
Sb 1.46
loop_
_atom_site_label
_atom_site_type_symbol
_atom_site_fract_x
_atom_site_fract_y
_atom_site_fract_z
Sb1 Sb 0.052758(11) 0.052758(11) 0.052758(11)
O1 O 0.06766(13) 0.15581(13) 0.05152(12)
F1 F 0.15409(17) 0.24539(16) 0.11095(16)
F2 F 0.1622(2) 0.29981(18) 0.01735(17)
F3 F 0.0305(2) 0.26872(17) 0.1288(3)
F4 F 0.0138(2) 0.2949(2) 0.0236(3)
F5 F 0.0138(4) 0.3965(2) 0.1192(4)
F6 F 0.1173(3) 0.37879(17) 0.13543(18)
F7 F 0.0833(5) 0.40806(19) 0.0406(2)
O2 O 0.09535(15) 0.07289(14) -0.06105(13)
C1 C 0.10763(19) 0.19360(19) 0.0154(2)
C2 C 0.1344(2) 0.1832(2) -0.0464(2)
H1 H 0.16150 0.21780 -0.06540
C3 C 0.12409(19) 0.1223(2) -0.08513(19)
C4 C 0.1499(2) 0.1187(2) -0.1577(2)
C5 C 0.1407(4) 0.1861(3) -0.1947(3)
H2 H 0.16960 0.22040 -0.17380
H3 H 0.09350 0.20030 -0.19150
H4 H 0.15320 0.18060 -0.24220
C6 C 0.1119(3) 0.0620(3) -0.1950(2)
H5 H 0.06330 0.07040 -0.19260
H6 H 0.12220 0.01860 -0.17370
H7 H 0.12620 0.06100 -0.24230
C7 C 0.2248(3) 0.1004(4) -0.1531(3)
H8 H 0.24870 0.13490 -0.12700
H9 H 0.24400 0.09800 -0.19870
H10 H 0.22970 0.05650 -0.13080
C8 C 0.1220(2) 0.2593(2) 0.0532(2)
C9 C 0.0576(4) 0.2985(3) 0.0727(3)
C10 C 0.0690(5) 0.3723(3) 0.0922(3)
O1A O 0.05152(13) 0.06766(13) 0.15581(12)
C1A C 0.01540(19) 0.10763(19) 0.1936(2)
C2A C -0.0464(2) 0.1344(2) 0.1832(2)
H1A H -0.06540 0.16150 0.21780
C3A C -0.08513(19) 0.12409(20) 0.12230(19)
O2A O -0.06105(15) 0.09535(14) 0.07289(13)
O1B O 0.15581(13) 0.05152(13) 0.06766(12)
C1B C 0.19360(19) 0.01540(19) 0.10763(20)
C2B C 0.1832(2) -0.0464(2) 0.1344(2)
H1B H 0.21780 -0.06540 0.16150
C3B C 0.12230(19) -0.08513(20) 0.12409(19)
O2B O 0.07289(15) -0.06105(14) 0.09535(13)
C4B C 0.1187(2) -0.1577(2) 0.1499(2)
C5B C 0.1861(4) -0.1947(3) 0.1407(3)
H2B H 0.22040 -0.17380 0.16960
H3B H 0.20030 -0.19150 0.09350
H4B H 0.18060 -0.24220 0.15320
C6B C 0.0620(3) -0.1950(3) 0.1119(2)
H5B H 0.07040 -0.19260 0.06330
H6B H 0.01860 -0.17370 0.12220
H7B H 0.06100 -0.24230 0.12620
C7B C 0.1004(3) -0.1531(4) 0.2248(3)
H8B H 0.13490 -0.12700 0.24870
H9B H 0.09800 -0.19870 0.24400
H10B H 0.05650 -0.13080 0.22970
C8B C 0.2593(2) 0.0532(2) 0.1220(2)
F1B F 0.24539(17) 0.11095(16) 0.15409(16)
F2B F 0.29981(20) 0.01735(18) 0.16220(17)
C9B C 0.2985(4) 0.0727(3) 0.0576(3)
F3B F 0.26872(20) 0.12880(17) 0.0305(3)
F4B F 0.2949(2) 0.0236(2) 0.0138(3)
C10B C 0.3723(5) 0.0922(3) 0.0690(3)
F5B F 0.3965(4) 0.1192(2) 0.0138(4)
F6B F 0.37879(30) 0.13543(17) 0.11730(18)
F7B F 0.40806(50) 0.04060(19) 0.0833(2)
C4A C -0.1577(2) 0.1499(2) 0.1187(2)
C5A C -0.1947(4) 0.1407(3) 0.1861(3)
H2A H -0.17380 0.16960 0.22040
H3A H -0.19150 0.09350 0.20030
H4A H -0.24220 0.15320 0.18060
C6A C -0.1950(3) 0.1119(3) 0.0620(2)
H5A H -0.19260 0.06330 0.07040
H6A H -0.17370 0.12220 0.01860
H7A H -0.24230 0.12620 0.06100
C7A C -0.1531(3) 0.2248(4) 0.1004(3)
H8A H -0.12700 0.24870 0.13490
H9A H -0.19870 0.24400 0.09800
H10A H -0.13080 0.22970 0.05650
C8A C 0.0532(2) 0.1220(2) 0.2593(2)
F1A F 0.11095(17) 0.15409(16) 0.24539(16)
F2A F 0.01735(20) 0.16220(18) 0.29981(17)
C9A C 0.0727(4) 0.0576(3) 0.2985(3)
F3A F 0.1288(2) 0.03050(17) 0.26872(30)
F4A F 0.0236(2) 0.0138(2) 0.2949(3)
C10A C 0.0922(5) 0.0690(3) 0.3723(3)
F5A F 0.1192(4) 0.0138(2) 0.3965(4)
F6A F 0.13543(30) 0.11730(17) 0.37879(18)
F7A F 0.0406(5) 0.08330(19) 0.40806(20)
#END

data_CSD_CIF_NOVVAV
_audit_creation_date 1998-08-03
_audit_creation_method CSD-ConQuest-V1
_database_code_CSD NOVVAV
_chemical_formula_sum 'C15 H39 As1 Mo1 N4 Si3'
_chemical_formula_moiety
;
C15 H39 As1 Mo1 N4 Si3
;
_journal_coden_Cambridge 4
_journal_volume 119
_journal_year 1997
_journal_page_first 11037
_journal_name_full 'J.Am.Chem.Soc. '
loop_
_publ_author_name
"N.C.Mosch-Zanetti"
"R.R.Schrock"
"W.M.Davis"
"K.Wanninger"
"S.W.Seidel"
"M.B.O'Donoghue"
_chemical_name_systematic
;
Arsenido-(tris(N-trimethylsilylamidoethyl)amino)-molybdenum
;
_cell_volume   5085.786
_exptl_crystal_colour 'orange'
_exptl_crystal_density_diffrn 1.386
_exptl_crystal_description 'cubes'
_diffrn_ambient_temperature 188
#These two values have been output from a single CSD field.
_refine_ls_R_factor_gt 0.042
_refine_ls_wR_factor_gt 0.042
_symmetry_cell_setting cubic
_symmetry_space_group_name_H-M 'P a -3'
_symmetry_Int_Tables_number 205
loop_
_symmetry_equiv_pos_site_id
_symmetry_equiv_pos_as_xyz
1 x,y,z
2 1/2-x,-y,1/2+z
3 1/2+x,1/2-y,-z
4 z,x,y
5 -x,1/2+y,1/2-z
6 1/2-z,-x,1/2+y
7 1/2+z,1/2-x,-y
8 -z,1/2+x,1/2-y
9 y,z,x
10 1/2+y,1/2-z,-x
11 -y,1/2+z,1/2-x
12 1/2-y,-z,1/2+x
13 -x,-y,-z
14 -1/2+x,y,-1/2-z
15 -1/2-x,-1/2+y,z
16 -z,-x,-y
17 x,-1/2-y,-1/2+z
18 -1/2+z,x,-1/2-y
19 -1/2-z,-1/2+x,y
20 z,-1/2-x,-1/2+y
21 -y,-z,-x
22 -1/2-y,-1/2+z,x
23 y,-1/2-z,-1/2+x
24 -1/2+y,z,-1/2-x
_cell_length_a 17.197(2)
_cell_length_b 17.197(2)
_cell_length_c 17.197(2)
_cell_angle_alpha 90
_cell_angle_beta 90
_cell_angle_gamma 90
_cell_formula_units_Z 8
loop_
_atom_type_symbol
_atom_type_radius_bond
C 0.68
H 0.23
As 1.21
Mo 1.43
N 0.68
Si 1.20
loop_
_atom_site_label
_atom_site_type_symbol
_atom_site_fract_x
_atom_site_fract_y
_atom_site_fract_z
Mo1 Mo 0.20676(6) 0.20700 0.20700
As1 As 0.28237(7) 0.28200 0.28200
Si1 Si 0.2235(2) 0.1052(2) 0.3705(2)
N1 N 0.1899(5) 0.1168(5) 0.2750(5)
N2 N 0.1284(6) 0.12800 0.12800
C1 C 0.1338(7) 0.0570(7) 0.2497(7)
C2 C 0.1320(8) 0.0520(8) 0.1627(8)
C3 C 0.3306(7) 0.104(1) 0.3765(8)
C4 C 0.1837(9) 0.1806(7) 0.4368(7)
C5 C 0.190(1) 0.0115(8) 0.4114(8)
H1 H 0.14900 0.00800 0.27100
H2 H 0.08400 0.07000 0.26800
H3 H 0.08800 0.02300 0.14700
H4 H 0.17800 0.02600 0.14500
H5 H 0.34500 0.10100 0.43000
H6 H 0.35000 0.06200 0.34900
H7 H 0.35000 0.15200 0.35500
H8 H 0.20400 0.17200 0.48700
H9 H 0.19800 0.23000 0.41800
H10 H 0.12900 0.17600 0.43800
H11 H 0.13500 0.01100 0.41200
H12 H 0.21000 -0.02900 0.38100
H13 H 0.21000 0.00700 0.46300
N1C N 0.2750(5) 0.1899(5) 0.1168(5)
Si1C Si 0.3705(2) 0.2235(2) 0.1052(2)
C3C C 0.3765(7) 0.3306(10) 0.1040(8)
H5C H 0.43000 0.34500 0.10100
H6C H 0.34900 0.35000 0.06200
H7C H 0.35500 0.35000 0.15200
C4C C 0.4368(9) 0.1837(7) 0.1806(7)
H8C H 0.48700 0.20400 0.17200
H9C H 0.41800 0.19800 0.23000
H10C H 0.43800 0.12900 0.17600
C5C C 0.4114(10) 0.1900(8) 0.0115(8)
H11C H 0.41200 0.13500 0.01100
H12C H 0.38100 0.21000 -0.02900
H13C H 0.46300 0.21000 0.00700
C1C C 0.2497(7) 0.1338(7) 0.0570(7)
C2C C 0.1627(8) 0.1320(8) 0.0520(8)
C2H C 0.0520(8) 0.1627(8) 0.1320(8)
C1H C 0.0570(7) 0.2497(7) 0.1338(7)
N1H N 0.1168(5) 0.2750(5) 0.1899(5)
Si1H Si 0.1052(2) 0.3705(2) 0.2235(2)
C3H C 0.1040(7) 0.3765(10) 0.3306(8)
H5H H 0.10100 0.43000 0.34500
H6H H 0.06200 0.34900 0.35000
H7H H 0.15200 0.35500 0.35000
C4H C 0.1806(9) 0.4368(7) 0.1837(7)
H8H H 0.17200 0.48700 0.20400
H9H H 0.23000 0.41800 0.19800
H10H H 0.17600 0.43800 0.12900
C5H C 0.0115(10) 0.4114(8) 0.1900(8)
H11H H 0.01100 0.41200 0.13500
H12H H -0.02900 0.38100 0.21000
H13H H 0.00700 0.46300 0.21000
H1H H 0.00800 0.27100 0.14900
H2H H 0.07000 0.26800 0.08400
H3H H 0.02300 0.14700 0.08800
H4H H 0.02600 0.14500 0.17800
H3C H 0.14700 0.08800 0.02300
H4C H 0.14500 0.17800 0.02600
H1C H 0.27100 0.14900 0.00800
H2C H 0.26800 0.08400 0.07000
#END

data_CSD_CIF_OHISOO
_audit_creation_date 2010-07-30
_audit_creation_method CSD-ConQuest-V1
_database_code_CSD OHISOO
_database_code_depnum_ccdc_archive 'CCDC 742312'
_chemical_formula_sum 'C12 H18 Cl1 N6 O3 Re1'
_chemical_formula_moiety
;
C12 H18 N6 O3 Re1 1+,Cl1 1-
;
_journal_coden_Cambridge 222
_journal_year 2009
_journal_page_first 9334
_journal_name_full 'Dalton Trans. '
loop_
_publ_author_name
"A.Flores-Figueroa"
"O.Kaufhold"
"K.-O.Feldmann"
"F.E.Hahn"
_chemical_name_systematic
;
fac-Tricarbonyl-(triimidazolidin-2-ylidene)-rhenium(ii) chloride
;
_cell_volume   3270.659
_exptl_crystal_colour 'colorless'
_exptl_crystal_density_diffrn 2.096
_exptl_crystal_description 'block'
_exptl_crystal_preparation 'methanol/diethyl ether'
_diffrn_ambient_temperature 153
#These two values have been output from a single CSD field.
_refine_ls_R_factor_gt 0.0155
_refine_ls_wR_factor_gt 0.0155
_symmetry_cell_setting cubic
_symmetry_space_group_name_H-M 'P a -3'
_symmetry_Int_Tables_number 205
loop_
_symmetry_equiv_pos_site_id
_symmetry_equiv_pos_as_xyz
1 x,y,z
2 1/2-x,-y,1/2+z
3 -x,1/2+y,1/2-z
4 1/2+x,1/2-y,-z
5 z,x,y
6 1/2+z,1/2-x,-y
7 1/2-z,-x,1/2+y
8 -z,1/2+x,1/2-y
9 y,z,x
10 -y,1/2+z,1/2-x
11 1/2+y,1/2-z,-x
12 1/2-y,-z,1/2+x
13 -x,-y,-z
14 -1/2+x,y,-1/2-z
15 x,-1/2-y,-1/2+z
16 -1/2-x,-1/2+y,z
17 -z,-x,-y
18 -1/2-z,-1/2+x,y
19 -1/2+z,x,-1/2-y
20 z,-1/2-x,-1/2+y
21 -y,-z,-x
22 y,-1/2-z,-1/2+x
23 -1/2-y,-1/2+z,x
24 -1/2+y,z,-1/2-x
_cell_length_a 14.8438(3)
_cell_length_b 14.8438(3)
_cell_length_c 14.8438(3)
_cell_angle_alpha 90
_cell_angle_beta 90
_cell_angle_gamma 90
_cell_formula_units_Z 8
loop_
_atom_type_symbol
_atom_type_radius_bond
C 0.68
H 0.23
Cl 0.99
N 0.68
O 0.68
Re 1.51
loop_
_atom_site_label
_atom_site_type_symbol
_atom_site_fract_x
_atom_site_fract_y
_atom_site_fract_z
Re1 Re 0.877872(5) 0.377872(5) 0.122128(5)
O1 O 1.08166(11) 0.41519(13) 0.14820(13)
C1 C 1.00625(15) 0.39953(14) 0.13963(14)
Cl1 Cl 0.82145(3) 0.67855(3) 0.32145(3)
N1 N 0.84060(15) 0.32531(13) 0.32537(12)
H1 H 0.84870 0.26830 0.31120
N2 N 0.84001(15) 0.46807(13) 0.31125(13)
H2 H 0.84610 0.52140 0.28600
C2 C 0.85038(13) 0.39213(13) 0.26593(14)
C3 C 0.81762(19) 0.45688(16) 0.40632(16)
H3 H 0.75840 0.48400 0.42070
H4 H 0.86430 0.48400 0.44560
C4 C 0.81521(19) 0.35465(16) 0.41620(15)
H5 H 0.85910 0.33350 0.46180
H6 H 0.75420 0.33320 0.43260
O1G O 0.85180(11) 0.58166(13) 0.08481(13)
O1J O 0.91519(11) 0.35180(13) -0.08166(13)
C1G C 0.86037(15) 0.50625(14) 0.10047(14)
C1J C 0.89953(15) 0.36037(14) -0.00625(14)
N1G N 0.67463(15) 0.34060(13) 0.17469(12)
N1J N 0.82531(15) 0.17463(13) 0.15940(12)
H1G H 0.68880 0.34870 0.23170
H1J H 0.76830 0.18880 0.15130
N2G N 0.68875(15) 0.34001(13) 0.03193(13)
N2J N 0.96807(15) 0.18875(13) 0.15999(13)
H2G H 0.71400 0.34610 -0.02140
H2J H 1.02140 0.21400 0.15390
C2G C 0.73407(13) 0.35038(13) 0.10787(14)
C2J C 0.89213(13) 0.23407(13) 0.14962(14)
C3G C 0.59368(19) 0.31762(16) 0.04312(16)
C3J C 0.95688(19) 0.09368(16) 0.18238(16)
H3G H 0.57930 0.25840 0.01600
H3J H 0.98400 0.07930 0.24160
H4G H 0.55440 0.36430 0.01600
H4J H 0.98400 0.05440 0.13570
C4G C 0.58380(19) 0.31521(16) 0.14535(15)
C4J C 0.85465(19) 0.08380(16) 0.18479(15)
H5G H 0.53820 0.35910 0.16650
H5J H 0.83350 0.03820 0.14090
H6G H 0.56740 0.25420 0.16680
H6J H 0.83320 0.06740 0.24580
#END

data_CSD_CIF_PABFED
_audit_creation_date 1992-11-16
_audit_creation_method CSD-ConQuest-V1
_database_code_CSD PABFED
_chemical_formula_sum 'C12 H24 Bi1 Cl3 S6'
_chemical_formula_moiety
;
C12 H24 Bi1 Cl3 S6
;
_journal_coden_Cambridge 186
_journal_year 1992
_journal_page_first 1339
_journal_name_full 'J.Chem.Soc.,Dalton Trans. '
loop_
_publ_author_name
"G.R.Willey"
"M.T.Lakin"
"N.W.Alcock"
_chemical_name_systematic
;
(1,4,7,10,13,16-Hexathiacyclo-octadecane)-trichloro-bismuth
;
_chemical_melting_point 448.15
_cell_volume   4395.631
_exptl_crystal_colour 'colorless'
_exptl_crystal_density_diffrn 2.04
_exptl_special_details
;
Melts with decomposition.

;
_diffrn_ambient_temperature ?
_diffrn_special_details
;
The study was carried out at room temperature,in the range 283-303K

;
#These two values have been output from a single CSD field.
_refine_ls_R_factor_gt 0.044
_refine_ls_wR_factor_gt 0.044
_symmetry_cell_setting cubic
_symmetry_space_group_name_H-M 'P a 3'
_symmetry_Int_Tables_number 205
loop_
_symmetry_equiv_pos_site_id
_symmetry_equiv_pos_as_xyz
1 x,y,z
2 z,x,y
3 y,z,x
4 1/2+x,y,1/2-z
5 1/2+z,x,1/2-y
6 1/2+y,z,1/2-x
7 1/2-x,1/2+y,z
8 1/2-z,1/2+x,y
9 1/2-y,1/2+z,x
10 -x,1/2+y,1/2-z
11 -z,1/2+x,1/2-y
12 -y,1/2+z,1/2-x
13 -x,-y,-z
14 -z,-x,-y
15 -y,-z,-x
16 -1/2-x,-y,-1/2+z
17 -1/2-z,-x,-1/2+y
18 -1/2-y,-z,-1/2+x
19 -1/2+x,-1/2-y,-z
20 -1/2+z,-1/2-x,-y
21 -1/2+y,-1/2-z,-x
22 x,-1/2-y,-1/2+z
23 z,-1/2-x,-1/2+y
24 y,-1/2-z,-1/2+x
_cell_length_a 16.381(5)
_cell_length_b 16.381(5)
_cell_length_c 16.381(5)
_cell_angle_alpha 90
_cell_angle_beta 90
_cell_angle_gamma 90
_cell_formula_units_Z 8
loop_
_atom_type_symbol
_atom_type_radius_bond
C 0.68
H 0.23
Bi 1.82
Cl 0.99
S 1.02
loop_
_atom_site_label
_atom_site_type_symbol
_atom_site_fract_x
_atom_site_fract_y
_atom_site_fract_z
Bi1 Bi 0.35206(3) 0.35206(3) 0.35206(3)
S1 S 0.5126(2) 0.3399(2) 0.4654(2)
S2 S 0.3374(2) 0.2549(2) 0.5171(2)
Cl1 Cl 0.3817(3) 0.2011(2) 0.3116(2)
C1 C 0.6047(8) 0.3324(9) 0.4018(9)
C2 C 0.5048(9) 0.2366(10) 0.5003(10)
C3 C 0.4373(11) 0.2321(11) 0.5629(10)
C4 C 0.2918(10) 0.3197(9) 0.5940(9)
H1 H 0.64570 0.30300 0.43160
H2 H 0.62500 0.38660 0.39270
H3 H 0.55590 0.22030 0.52400
H4 H 0.49340 0.20070 0.45540
H5 H 0.43660 0.17790 0.58520
H6 H 0.44750 0.26970 0.60660
H7 H 0.29210 0.29120 0.64520
H8 H 0.23580 0.32890 0.57930
S1A S 0.4654(2) 0.5126(2) 0.3399(2)
S1B S 0.3399(2) 0.4654(2) 0.5126(2)
S2A S 0.5171(2) 0.3374(2) 0.2549(2)
S2B S 0.2549(2) 0.5171(2) 0.3374(2)
Cl1A Cl 0.3116(3) 0.3817(2) 0.2011(2)
Cl1B Cl 0.2011(3) 0.3116(2) 0.3817(2)
C4A C 0.594(1) 0.2918(9) 0.3197(9)
C1B C 0.3324(8) 0.4018(9) 0.6047(9)
C1A C 0.4018(8) 0.6047(9) 0.3324(9)
C2A C 0.5003(9) 0.5048(10) 0.2366(10)
C2B C 0.2366(9) 0.5003(10) 0.5048(10)
C3A C 0.5629(11) 0.4373(11) 0.2321(10)
C3B C 0.2321(11) 0.5629(11) 0.4373(10)
C4B C 0.3197(10) 0.5940(9) 0.2918(9)
H7A H 0.64520 0.29210 0.29120
H8A H 0.57930 0.23580 0.32890
H1B H 0.30300 0.43160 0.64570
H2B H 0.38660 0.39270 0.62500
H1A H 0.43160 0.64570 0.30300
H2A H 0.39270 0.62500 0.38660
H3A H 0.52400 0.55590 0.22030
H4A H 0.45540 0.49340 0.20070
H3B H 0.22030 0.52400 0.55590
H4B H 0.20070 0.45540 0.49340
H5A H 0.58520 0.43660 0.17790
H6A H 0.60660 0.44750 0.26970
H5B H 0.17790 0.58520 0.43660
H6B H 0.26970 0.60660 0.44750
H7B H 0.29120 0.64520 0.29210
H8B H 0.32890 0.57930 0.23580
#END

data_CSD_CIF_PAGXEB
_audit_creation_date 2005-01-06
_audit_creation_method CSD-ConQuest-V1
_database_code_CSD PAGXEB
_database_code_depnum_ccdc_archive 'CCDC 237258'
_chemical_formula_sum 'C30 H27 Cl1 Li1 N6 P1'
_chemical_formula_moiety
;
C30 H27 Cl1 Li1 N6 P1
;
_journal_coden_Cambridge 29
_journal_volume 630
_journal_year 2004
_journal_page_first 1501
_journal_name_full 'Z.Anorg.Allg.Chem. '
loop_
_publ_author_name
"M.Enders"
"O.Fritz"
"H.Pritzkow"
_chemical_name_systematic
;
Chloro-(tris(1-benzylimidazol-2-yl)phosphine)-lithium(i)
;
_cell_volume   5960.951
_exptl_crystal_colour 'colorless'
_exptl_crystal_density_diffrn 1.214
_exptl_crystal_description 'prism'
_exptl_crystal_preparation 'ethanol'
_diffrn_ambient_temperature 190
#These two values have been output from a single CSD field.
_refine_ls_R_factor_gt 0.037
_refine_ls_wR_factor_gt 0.037
_symmetry_cell_setting cubic
_symmetry_space_group_name_H-M 'P a -3'
_symmetry_Int_Tables_number 205
loop_
_symmetry_equiv_pos_site_id
_symmetry_equiv_pos_as_xyz
1 x,y,z
2 z,x,y
3 y,z,x
4 1/2+x,y,1/2-z
5 x,1/2-y,1/2+z
6 1/2-x,1/2+y,z
7 1/2-z,1/2+x,y
8 1/2+z,x,1/2-y
9 z,1/2-x,1/2+y
10 y,1/2-z,1/2+x
11 1/2-y,1/2+z,x
12 1/2+y,z,1/2-x
13 -x,-y,-z
14 -z,-x,-y
15 -y,-z,-x
16 -1/2-x,-y,-1/2+z
17 -x,-1/2+y,-1/2-z
18 -1/2+x,-1/2-y,-z
19 -1/2+z,-1/2-x,-y
20 -1/2-z,-x,-1/2+y
21 -z,-1/2+x,-1/2-y
22 -y,-1/2+z,-1/2-x
23 -1/2+y,-1/2-z,-x
24 -1/2-y,-z,-1/2+x
_cell_length_a 18.1317(6)
_cell_length_b 18.1317(6)
_cell_length_c 18.1317(6)
_cell_angle_alpha 90
_cell_angle_beta 90
_cell_angle_gamma 90
_cell_formula_units_Z 8
loop_
_atom_type_symbol
_atom_type_radius_bond
C 0.68
H 0.23
Cl 0.99
Li 1.03
N 0.68
P 1.05
loop_
_atom_site_label
_atom_site_type_symbol
_atom_site_fract_x
_atom_site_fract_y
_atom_site_fract_z
P1 P 0.326039(17) 0.826039(17) 0.673961(17)
Cl1 Cl 0.147685(17) 0.647686(17) 0.852315(17)
Li1 Li 0.22025(12) 0.72025(12) 0.77975(12)
N1 N 0.21794(6) 0.80673(5) 0.56679(6)
N2 N 0.18835(6) 0.75295(6) 0.67282(6)
C1 C 0.23915(6) 0.79201(6) 0.63752(6)
C2 C 0.13260(8) 0.74304(8) 0.62258(9)
C3 C 0.14958(8) 0.77596(8) 0.55754(9)
C4 C 0.25835(9) 0.85279(7) 0.51417(7)
C5 C 0.26008(7) 0.93265(7) 0.53715(6)
C6 C 0.31959(9) 0.97672(9) 0.51769(8)
C7 C 0.32133(10) 1.05071(9) 0.53746(10)
C8 C 0.26406(11) 1.08122(8) 0.5766(1)
C9 C 0.20547(10) 1.03816(8) 0.59686(10)
C10 C 0.20320(8) 0.96406(8) 0.57708(8)
H1 H 0.0909(10) 0.717(1) 0.6375(9)
H2 H 0.1250(9) 0.7801(9) 0.5141(10)
H3 H 0.2355(9) 0.8465(9) 0.4674(10)
H4 H 0.3082(9) 0.8332(9) 0.5100(9)
H5 H 0.3585(10) 0.9541(10) 0.4912(11)
H6 H 0.3659(11) 1.0800(11) 0.5238(11)
H7 H 0.2643(11) 1.1323(12) 0.5917(12)
H8 H 0.1644(12) 1.0589(12) 0.6257(12)
H9 H 0.1616(11) 0.9363(11) 0.5890(11)
N2T N 0.32718(6) 0.68835(6) 0.74705(6)
C1T C 0.36248(6) 0.73915(6) 0.70799(6)
C1V C 0.29201(6) 0.86248(6) 0.76085(6)
N1V N 0.30673(6) 0.93321(5) 0.78206(6)
C3V C 0.27596(8) 0.94246(8) 0.85042(9)
C2V C 0.24304(8) 0.87742(8) 0.86740(9)
N2V N 0.25295(6) 0.82718(6) 0.81165(6)
H1V H 0.217(1) 0.8625(10) 0.9091(9)
H2V H 0.2801(9) 0.9859(9) 0.875(1)
C4V C 0.35279(9) 0.98583(7) 0.74165(7)
C5V C 0.43265(7) 0.96285(7) 0.73992(6)
C6V C 0.47672(9) 0.98231(9) 0.68041(8)
C7V C 0.55071(10) 0.96254(9) 0.67867(10)
C8V C 0.58122(11) 0.92340(8) 0.73594(10)
C9V C 0.53816(10) 0.90314(8) 0.79453(10)
C10V C 0.46406(8) 0.92292(8) 0.79680(8)
H9V H 0.4363(11) 0.9110(11) 0.8384(11)
H8V H 0.5589(12) 0.8743(12) 0.8356(12)
H7V H 0.6323(11) 0.9083(12) 0.7357(12)
H6V H 0.5800(11) 0.9762(11) 0.6341(11)
H5V H 0.4541(10) 1.0088(10) 0.6415(11)
H3V H 0.3465(9) 1.0326(9) 0.7645(10)
H4V H 0.3332(9) 0.9900(9) 0.6918(9)
N1T N 0.43321(6) 0.71794(5) 0.69327(6)
C3T C 0.44246(8) 0.64958(8) 0.72404(9)
C2T C 0.37742(8) 0.63260(8) 0.75696(9)
H1T H 0.3625(10) 0.5909(10) 0.7830(9)
H2T H 0.4859(9) 0.6250(9) 0.7199(10)
C4T C 0.48583(9) 0.75835(7) 0.64721(7)
C5T C 0.46285(7) 0.76008(7) 0.56735(6)
C6T C 0.48231(9) 0.81959(9) 0.52328(8)
C7T C 0.46254(10) 0.82133(9) 0.44929(10)
C8T C 0.42340(11) 0.76406(8) 0.41878(10)
C9T C 0.40314(10) 0.70547(8) 0.46184(10)
C10T C 0.42292(8) 0.70320(8) 0.53594(8)
H9T H 0.4110(11) 0.6616(11) 0.5637(11)
H8T H 0.3743(12) 0.6644(12) 0.4411(12)
H7T H 0.4083(11) 0.7643(12) 0.3677(12)
H6T H 0.4762(11) 0.8659(11) 0.4200(11)
H5T H 0.5088(10) 0.8585(10) 0.5459(11)
H3T H 0.5326(9) 0.7355(9) 0.6535(10)
H4T H 0.4900(9) 0.8082(9) 0.6668(9)
#END

data_CSD_CIF_PANCUC
_audit_creation_date 1993-05-12
_audit_creation_method CSD-ConQuest-V1
_database_code_CSD PANCUC
_database_code_depnum_ccdc_archive 'CCDC 1227864'
_chemical_formula_sum 'C4 H6 Au1 F6 N2 Sb1'
_chemical_formula_moiety
;
C4 H6 Au1 N2 1+,F6 Sb1 1-
;
_journal_coden_Cambridge 4
_journal_volume 114
_journal_year 1992
_journal_page_first 8972
_journal_name_full 'J.Am.Chem.Soc. '
loop_
_publ_author_name
"H.Willner"
"J.Schaebs"
"G.Hwang"
"F.Mistry"
"R.Jones"
"J.Trotter"
"F.Aubke"
_chemical_name_systematic
;
bis(Acetonitrile)-gold(i) hexafluoroantimonate(v)
;
_chemical_name_common
;
Teaching Subset: Fundamental Chemistry, Symmetry
;
_cell_volume   1076.891
_exptl_crystal_colour 'colorless'
_exptl_crystal_density_diffrn 3.175
_diffrn_ambient_temperature ?
_diffrn_special_details
;
The study was carried out at room temperature,in the range 283-303K

;
#These two values have been output from a single CSD field.
_refine_ls_R_factor_gt 0.023
_refine_ls_wR_factor_gt 0.023
_symmetry_cell_setting cubic
_symmetry_space_group_name_H-M 'P a 3'
_symmetry_Int_Tables_number 205
loop_
_symmetry_equiv_pos_site_id
_symmetry_equiv_pos_as_xyz
1 x,y,z
2 z,x,y
3 y,z,x
4 -x,1/2+y,1/2-z
5 -z,1/2+x,1/2-y
6 -y,1/2+z,1/2-x
7 1/2-x,-y,1/2+z
8 1/2-z,-x,1/2+y
9 1/2-y,-z,1/2+x
10 1/2+x,1/2-y,-z
11 1/2+z,1/2-x,-y
12 1/2+y,1/2-z,-x
13 -x,-y,-z
14 -z,-x,-y
15 -y,-z,-x
16 x,-1/2-y,-1/2+z
17 z,-1/2-x,-1/2+y
18 y,-1/2-z,-1/2+x
19 -1/2+x,y,-1/2-z
20 -1/2+z,x,-1/2-y
21 -1/2+y,z,-1/2-x
22 -1/2-x,-1/2+y,z
23 -1/2-z,-1/2+x,y
24 -1/2-y,-1/2+z,x
_cell_length_a 10.250(2)
_cell_length_b 10.250(2)
_cell_length_c 10.250(2)
_cell_angle_alpha 90
_cell_angle_beta 90
_cell_angle_gamma 90
_cell_formula_units_Z 4
loop_
_atom_type_symbol
_atom_type_radius_bond
C 0.68
H 0.23
Au 1.50
F 0.64
N 0.68
Sb 1.46
loop_
_atom_site_label
_atom_site_type_symbol
_atom_site_fract_x
_atom_site_fract_y
_atom_site_fract_z
Au1 Au 0.50000 0.50000 0.50000
N1 N 0.391(1) 0.39090 0.39090
C1 C 0.328(1) 0.32790 0.32790
C2 C 0.245(1) 0.24550 0.24550
H1 H 0.29500 0.17000 0.21500
Sb1 Sb 0.00000 0.00000 0.00000
F1 F 0.1692(8) -0.0367(7) 0.0480(7)
N1L N 0.609(1) 0.60910 0.60910
H1A H 0.21500 0.29500 0.17000
H1B H 0.17000 0.21500 0.29500
C1L C 0.672(1) 0.67210 0.67210
C2L C 0.755(1) 0.75450 0.75450
H1L H 0.70500 0.83000 0.78500
H1M H 0.78500 0.70500 0.83000
H1N H 0.83000 0.78500 0.70500
F1L F -0.1692(8) 0.0367(7) -0.0480(7)
F1A F 0.0480(8) 0.1692(7) -0.0367(7)
F1M F -0.0480(8) -0.1692(7) 0.0367(7)
F1B F -0.0367(8) 0.0480(7) 0.1692(7)
F1N F 0.0367(8) -0.0480(7) -0.1692(7)
#END

data_CSD_CIF_PAPWEJ
_audit_creation_date 2005-10-19
_audit_creation_method CSD-ConQuest-V1
_database_code_CSD PAPWEJ
_database_code_depnum_ccdc_archive 'CCDC 265420'
_chemical_formula_sum 'C3 H12 Cl3 In1 N6 O3'
_chemical_formula_moiety
;
C3 H12 Cl3 In1 N6 O3
;
_journal_coden_Cambridge 1145
_journal_volume 15
_journal_year 2005
_journal_page_first 2175
_journal_name_full 'J.Mater.Chem. '
loop_
_publ_author_name
"K.Sardar"
"M.Dan"
"B.Schwenzer"
"C.N.R.Rao"
_chemical_name_systematic
;
fac-Trichloro-tris(urea-O)-indium
;
_cell_volume   2695.833
_exptl_crystal_colour 'colorless'
_exptl_crystal_density_diffrn 1.978
_exptl_crystal_description 'block'
_diffrn_ambient_temperature 293
#These two values have been output from a single CSD field.
_refine_ls_R_factor_gt 0.0227
_refine_ls_wR_factor_gt 0.0227
_symmetry_cell_setting cubic
_symmetry_space_group_name_H-M 'P a -3'
_symmetry_Int_Tables_number 205
loop_
_symmetry_equiv_pos_site_id
_symmetry_equiv_pos_as_xyz
1 x,y,z
2 z,x,y
3 y,z,x
4 1/2-x,-y,1/2+z
5 -x,1/2+y,1/2-z
6 1/2+x,1/2-y,-z
7 1/2+z,1/2-x,-y
8 1/2-z,-x,1/2+y
9 -z,1/2+x,1/2-y
10 -y,1/2+z,1/2-x
11 1/2+y,1/2-z,-x
12 1/2-y,-z,1/2+x
13 -x,-y,-z
14 -z,-x,-y
15 -y,-z,-x
16 -1/2+x,y,-1/2-z
17 x,-1/2-y,-1/2+z
18 -1/2-x,-1/2+y,z
19 -1/2-z,-1/2+x,y
20 -1/2+z,x,-1/2-y
21 z,-1/2-x,-1/2+y
22 y,-1/2-z,-1/2+x
23 -1/2-y,-1/2+z,x
24 -1/2+y,z,-1/2-x
_cell_length_a 13.9176(1)
_cell_length_b 13.9176(1)
_cell_length_c 13.9176(1)
_cell_angle_alpha 90
_cell_angle_beta 90
_cell_angle_gamma 90
_cell_formula_units_Z 8
loop_
_atom_type_symbol
_atom_type_radius_bond
C 0.68
H 0.23
Cl 0.99
In 1.63
N 0.68
O 0.68
loop_
_atom_site_label
_atom_site_type_symbol
_atom_site_fract_x
_atom_site_fract_y
_atom_site_fract_z
In1 In 0.847020(14) 0.347020(14) 0.152980(14)
Cl1 Cl 0.67265(6) 0.37383(6) 0.17201(6)
O1 O 0.8689(2) 0.5015(2) 0.1671(2)
C1 C 0.9294(2) 0.5548(2) 0.2086(2)
N1 N 0.9126(3) 0.6478(2) 0.2141(3)
H1 H 0.8610(3) 0.6714(2) 0.1896(3)
H2 H 0.9532(3) 0.6850(2) 0.2422(3)
N2 N 1.0074(2) 0.5217(2) 0.2483(3)
H3 H 1.0195(2) 0.4611(2) 0.2469(3)
H4 H 1.0469(2) 0.5604(2) 0.2759(3)
Cl1H Cl 0.82799(6) 0.17265(6) 0.12617(6)
Cl1J Cl 0.87383(6) 0.32799(6) 0.32735(6)
O1H O 0.8329(2) 0.3689(2) -0.0015(2)
O1J O 1.0015(2) 0.3329(2) 0.1311(2)
C1H C 0.7914(2) 0.4294(2) -0.0548(2)
C1J C 1.0548(2) 0.2914(2) 0.0706(2)
N1H N 0.7859(3) 0.4126(2) -0.1478(3)
N1J N 1.1478(3) 0.2859(2) 0.0874(3)
H1H H 0.8104(3) 0.3610(2) -0.1714(3)
H1J H 1.1714(3) 0.3104(2) 0.1390(3)
H2H H 0.7578(3) 0.4532(2) -0.1850(3)
H2J H 1.1850(3) 0.2578(2) 0.0468(3)
N2H N 0.7517(2) 0.5074(2) -0.0217(3)
N2J N 1.0217(2) 0.2517(2) -0.0074(3)
H3H H 0.7531(2) 0.5195(2) 0.0389(3)
H3J H 0.9611(2) 0.2531(2) -0.0195(3)
H4H H 0.7241(2) 0.5469(2) -0.0604(3)
H4J H 1.0604(2) 0.2241(2) -0.0469(3)
#END

data_CSD_CIF_PEJVUV
_audit_creation_date 1998-11-04
_audit_creation_method CSD-ConQuest-V1
_database_code_CSD PEJVUV
_chemical_formula_sum 'C19 H36 N3 O7 Re3 S4'
_chemical_formula_moiety
;
C19 H36 N3 O7 Re3 S4
;
_journal_coden_Cambridge 95
_journal_year 1998
_journal_page_first 1030
_journal_name_full 'Izv.Akad.Nauk SSSR,Ser.Khim.(Russ.)(Russ.Chem.Bull.) '
loop_
_publ_author_name
"S.E.Nefedov"
"A.A.Sidorov"
"H.Berke"
"I.L.Eremenko"
_chemical_name_systematic
;
(\m~3~-t-Butylthiolato)-(\m~3~-oxo)-tris(\m~2~-t-butylthiolato)-tricarbonyl-tr
initrosyl-tri-rhenium
;
_cell_volume   6449.397
_exptl_crystal_colour 'orange-yellow'
_exptl_crystal_density_diffrn 2.277
_exptl_crystal_description 'prism'
_exptl_crystal_preparation 'pentane'
_diffrn_ambient_temperature 233.15
#These two values have been output from a single CSD field.
_refine_ls_R_factor_gt 0.041
_refine_ls_wR_factor_gt 0.041
_symmetry_cell_setting cubic
_symmetry_space_group_name_H-M 'P a 3'
_symmetry_Int_Tables_number 205
loop_
_symmetry_equiv_pos_site_id
_symmetry_equiv_pos_as_xyz
1 x,y,z
2 1/2-x,-y,1/2+z
3 1/2+x,1/2-y,-z
4 z,x,y
5 -x,1/2+y,1/2-z
6 1/2-z,-x,1/2+y
7 1/2+z,1/2-x,-y
8 -z,1/2+x,1/2-y
9 y,z,x
10 1/2+y,1/2-z,-x
11 -y,1/2+z,1/2-x
12 1/2-y,-z,1/2+x
13 -x,-y,-z
14 -1/2+x,y,-1/2-z
15 -1/2-x,-1/2+y,z
16 -z,-x,-y
17 x,-1/2-y,-1/2+z
18 -1/2+z,x,-1/2-y
19 -1/2-z,-1/2+x,y
20 z,-1/2-x,-1/2+y
21 -y,-z,-x
22 -1/2-y,-1/2+z,x
23 y,-1/2-z,-1/2+x
24 -1/2+y,z,-1/2-x
_cell_length_a 18.614(3)
_cell_length_b 18.614(3)
_cell_length_c 18.614(3)
_cell_angle_alpha 90
_cell_angle_beta 90
_cell_angle_gamma 90
_cell_formula_units_Z 8
loop_
_atom_type_symbol
_atom_type_radius_bond
C 0.68
H 0.23
N 0.68
O 0.68
Re 1.35
S 1.02
loop_
_atom_site_label
_atom_site_type_symbol
_atom_site_fract_x
_atom_site_fract_y
_atom_site_fract_z
Re1 Re 0.04952(4) 0.32638(4) 0.67249(4)
S1 S 0.07586(25) 0.24286(28) 0.57454(30)
S2 S 0.18330 0.31669 0.68330
O1 O -0.10754(86) 0.36126(90) 0.63455(96)
O2 O -0.00078(87) 0.21871(80) 0.77822(78)
O3 O 0.10790 0.39210 0.60790
N1 N 0.01720(91) 0.26289(86) 0.73454(90)
C1 C -0.0483(12) 0.3511(11) 0.6464(13)
C2 C 0.0065(11) 0.2356(12) 0.5010(12)
C3 C 0.0439(14) 0.1924(13) 0.4408(12)
H1 H 0.0117(14) 0.1884(13) 0.4008(12)
H2 H 0.0885(14) 0.2130(13) 0.4250(12)
H3 H 0.0527(14) 0.1455(13) 0.4606(12)
C4 C -0.0215(11) 0.3061(11) 0.4751(10)
H4 H -0.0540(11) 0.3006(11) 0.4355(10)
H5 H -0.0473(11) 0.3242(11) 0.516(1)
H6 H 0.0158(11) 0.3393(11) 0.4622(10)
C5 C -0.0544(12) 0.1906(13) 0.5355(12)
H7 H -0.0930(12) 0.1826(13) 0.5023(12)
H8 H -0.0368(12) 0.1452(13) 0.5527(12)
H9 H -0.0714(12) 0.2186(13) 0.5753(12)
C6 C 0.24090 0.25910 0.74090
C7 C 0.2160(13) 0.1816(11) 0.7319(12)
H10 H 0.2441(13) 0.1495(11) 0.7609(12)
H11 H 0.1668(13) 0.1801(11) 0.7474(12)
H12 H 0.2188(13) 0.1672(11) 0.6825(12)
Re1K Re 0.17362(4) 0.32751(4) 0.54952(4)
S1K S 0.25714(25) 0.42546(28) 0.57586(30)
Re1F Re 0.17249(4) 0.45048(4) 0.67362(4)
S1F S 0.07454(25) 0.42414(28) 0.75714(30)
C7F C 0.2319(13) 0.2840(11) 0.8184(12)
H10F H 0.2609(13) 0.2559(11) 0.8505(12)
H11F H 0.2474(13) 0.3332(11) 0.8199(12)
H12F H 0.1825(13) 0.2812(11) 0.8328(12)
C7K C 0.3184(13) 0.2681(11) 0.7160(12)
H10K H 0.3505(13) 0.2391(11) 0.7441(12)
H11K H 0.3199(13) 0.2526(11) 0.6668(12)
H12K H 0.3328(13) 0.3175(11) 0.7188(12)
N1K N 0.23711(91) 0.26546(86) 0.5172(9)
O2K O 0.28129(87) 0.22178(80) 0.49922(78)
C1K C 0.1489(12) 0.3536(11) 0.4517(13)
O1K O 0.13874(86) 0.36545(90) 0.39246(96)
N1F N 0.23454(91) 0.48280(86) 0.73711(90)
O2F O 0.27822(87) 0.50078(80) 0.78129(78)
C1F C 0.1464(12) 0.5483(11) 0.6489(13)
O1F O 0.13455(86) 0.60754(90) 0.63874(96)
C2F C 0.0010(11) 0.4935(12) 0.7644(12)
C3F C -0.0592(14) 0.4561(13) 0.8076(12)
H1F H -0.0992(14) 0.4883(13) 0.8116(12)
H2F H -0.0750(14) 0.4115(13) 0.7870(12)
H3F H -0.0394(14) 0.4473(13) 0.8545(12)
C4F C -0.0249(11) 0.5215(11) 0.6939(10)
H4F H -0.0645(11) 0.5540(11) 0.6994(10)
H5F H 0.0160(11) 0.5473(11) 0.6758(10)
H6F H -0.0378(11) 0.4842(11) 0.6607(10)
C5F C 0.0355(12) 0.5544(13) 0.8094(12)
H7F H 0.0023(12) 0.5930(13) 0.8174(12)
H8F H 0.0527(12) 0.5368(13) 0.8548(12)
H9F H 0.0753(12) 0.5714(13) 0.7814(12)
C2K C 0.2644(11) 0.4990(12) 0.5065(12)
C3K C 0.3076(14) 0.5592(13) 0.5439(12)
H1K H 0.3116(14) 0.5992(13) 0.5117(12)
H2K H 0.2870(14) 0.5750(13) 0.5885(12)
H3K H 0.3545(14) 0.5394(13) 0.5527(12)
C4K C 0.1939(11) 0.5249(11) 0.4785(10)
H4K H 0.1994(11) 0.5645(11) 0.446(1)
H5K H 0.1758(11) 0.4840(11) 0.4527(10)
H6K H 0.1607(11) 0.5378(11) 0.5158(10)
C5K C 0.3094(12) 0.4645(13) 0.4456(12)
H7K H 0.3174(12) 0.4977(13) 0.4070(12)
H8K H 0.3548(12) 0.4473(13) 0.4632(12)
H9K H 0.2814(12) 0.4247(13) 0.4286(12)
#END

data_CSD_CIF_PEXVIX
_audit_creation_date 1994-05-23
_audit_creation_method CSD-ConQuest-V1
_database_code_CSD PEXVIX
_database_code_depnum_ccdc_archive 'CCDC 1231867'
_chemical_formula_sum 'C15 H39 N4 Se1 Si3 Ta1'
_chemical_formula_moiety
;
C15 H39 N4 Se1 Si3 Ta1
;
_journal_coden_Cambridge 179
_journal_volume 32
_journal_year 1993
_journal_page_first 1450
_journal_name_full 'Angew.Chem.,Int.Ed. '
loop_
_publ_author_name
"V.Christou"
"J.Arnold"
_chemical_name_systematic
;
N,N',N''-tris(((2-Trimethylsilylamino)ethyl)amino-N,N',N'')-selenido-tantalum(
v)
;
_chemical_melting_point 458.15
_cell_volume   5068.948
_exptl_crystal_colour 'colorless'
_exptl_crystal_density_diffrn 1.621
_exptl_special_details
;
Melting point range 458.15-459.15K

;
_diffrn_ambient_temperature 177
#These two values have been output from a single CSD field.
_refine_ls_R_factor_gt 0.0181
_refine_ls_wR_factor_gt 0.0181
_symmetry_cell_setting cubic
_symmetry_space_group_name_H-M 'P a 3'
_symmetry_Int_Tables_number 205
loop_
_symmetry_equiv_pos_site_id
_symmetry_equiv_pos_as_xyz
1 x,y,z
2 z,x,y
3 y,z,x
4 -x,1/2+y,1/2-z
5 -z,1/2+x,1/2-y
6 -y,1/2+z,1/2-x
7 1/2-x,-y,1/2+z
8 1/2-z,-x,1/2+y
9 1/2-y,-z,1/2+x
10 1/2+x,1/2-y,-z
11 1/2+z,1/2-x,-y
12 1/2+y,1/2-z,-x
13 -x,-y,-z
14 -z,-x,-y
15 -y,-z,-x
16 x,-1/2-y,-1/2+z
17 z,-1/2-x,-1/2+y
18 y,-1/2-z,-1/2+x
19 -1/2+x,y,-1/2-z
20 -1/2+z,x,-1/2-y
21 -1/2+y,z,-1/2-x
22 -1/2-x,-1/2+y,z
23 -1/2-z,-1/2+x,y
24 -1/2-y,-1/2+z,x
_cell_length_a 17.178(5)
_cell_length_b 17.178(5)
_cell_length_c 17.178(5)
_cell_angle_alpha 90
_cell_angle_beta 90
_cell_angle_gamma 90
_cell_formula_units_Z 8
loop_
_atom_type_symbol
_atom_type_radius_bond
C 0.68
H 0.23
N 0.68
Se 1.22
Si 1.20
Ta 1.43
loop_
_atom_site_label
_atom_site_type_symbol
_atom_site_fract_x
_atom_site_fract_y
_atom_site_fract_z
Si1 Si 0.37228(8) 0.22391(9) 0.10335(8)
Ta1 Ta 0.21006(1) 0.21000 0.21000
Se1 Se 0.28832(1) 0.28800 0.28800
N1 N 0.2760(2) 0.1909(2) 0.1153(2)
N2 N 0.1311(2) 0.13100 0.13100
C1 C 0.2488(3) 0.1378(3) 0.0544(3)
C2 C 0.1612(3) 0.1372(3) 0.0517(3)
C3 C 0.4104(3) 0.1888(4) 0.0087(4)
C4 C 0.3785(3) 0.3311(3) 0.1011(3)
C5 C 0.4390(3) 0.1834(3) 0.1776(3)
H1 H 0.26641(1) 0.08525(1) 0.06374(1)
H2 H 0.26917(1) 0.15310(1) 0.00429(1)
H3 H 0.14238(1) 0.18563(1) 0.02837(1)
H4 H 0.14096(1) 0.09571(1) 0.02080(1)
H5 H 0.46156(1) 0.20571(1) -0.00123(1)
H6 H 0.40871(1) 0.13284(1) 0.00526(1)
H7 H 0.37762(1) 0.20775(1) -0.03432(1)
H8 H 0.42798(1) 0.35180(1) 0.09649(1)
H9 H 0.34467(1) 0.35440(1) 0.06189(1)
H10 H 0.35637(1) 0.35401(1) 0.15137(1)
H11 H 0.49181(1) 0.20169(1) 0.17011(1)
H12 H 0.42379(1) 0.19731(1) 0.22926(1)
H13 H 0.44110(1) 0.12720(1) 0.17513(1)
N1A N 0.1153(2) 0.2760(2) 0.1909(2)
N1B N 0.1909(2) 0.1153(2) 0.2760(2)
C2A C 0.0517(3) 0.1612(3) 0.1372(3)
C2B C 0.1372(3) 0.0517(3) 0.1612(3)
Si1A Si 0.10335(8) 0.37228(9) 0.22391(8)
C1A C 0.0544(3) 0.2488(3) 0.1378(3)
Si1B Si 0.22391(8) 0.10335(9) 0.37228(8)
C1B C 0.1378(3) 0.0544(3) 0.2488(3)
H3A H 0.02837(1) 0.14238(1) 0.18563(1)
H4A H 0.02080(1) 0.14096(1) 0.09571(1)
H3B H 0.18563(1) 0.02837(1) 0.14238(1)
H4B H 0.09571(1) 0.02080(1) 0.14096(1)
C3A C 0.0087(3) 0.4104(4) 0.1888(4)
C4A C 0.1011(3) 0.3785(3) 0.3311(3)
C5A C 0.1776(3) 0.4390(3) 0.1834(3)
H1A H 0.06374(1) 0.26641(1) 0.08525(1)
H2A H 0.00429(1) 0.26917(1) 0.15310(1)
C3B C 0.1888(3) 0.0087(4) 0.4104(4)
C4B C 0.3311(3) 0.1011(3) 0.3785(3)
C5B C 0.1834(3) 0.1776(3) 0.4390(3)
H1B H 0.08525(1) 0.06374(1) 0.26641(1)
H2B H 0.15310(1) 0.00429(1) 0.26917(1)
H5A H -0.00123(1) 0.46156(1) 0.20571(1)
H6A H 0.00526(1) 0.40871(1) 0.13284(1)
H7A H -0.03432(1) 0.37762(1) 0.20775(1)
H8A H 0.09649(1) 0.42798(1) 0.35180(1)
H9A H 0.06189(1) 0.34467(1) 0.35440(1)
H10A H 0.15137(1) 0.35637(1) 0.35401(1)
H11A H 0.17011(1) 0.49181(1) 0.20169(1)
H12A H 0.22926(1) 0.42379(1) 0.19731(1)
H13A H 0.17513(1) 0.44110(1) 0.12720(1)
H5B H 0.20571(1) -0.00123(1) 0.46156(1)
H6B H 0.13284(1) 0.00526(1) 0.40871(1)
H7B H 0.20775(1) -0.03432(1) 0.37762(1)
H8B H 0.35180(1) 0.09649(1) 0.42798(1)
H9B H 0.35440(1) 0.06189(1) 0.34467(1)
H10B H 0.35401(1) 0.15137(1) 0.35637(1)
H11B H 0.20169(1) 0.17011(1) 0.49181(1)
H12B H 0.19731(1) 0.22926(1) 0.42379(1)
H13B H 0.12720(1) 0.17513(1) 0.44110(1)
#END

data_CSD_CIF_PIGXEL
_audit_creation_date 2018-07-25
_audit_creation_method CSD-ConQuest-V1
_database_code_CSD PIGXEL
_database_code_depnum_ccdc_archive 'CCDC 1854535'
_chemical_formula_sum 'C9 H27 Br1 Si4'
_chemical_formula_moiety
;
C9 H27 Br1 Si4
;
_journal_coeditor_code "su5451"
_journal_coden_Cambridge 1828
_journal_volume 74
_journal_year 2018
_journal_page_first 1142
_journal_name_full 'Acta Crystallogr.,Sect.E:Cryst.Commun. '
loop_
_publ_author_name
"E.M.Gulotty"
"R.J.Staples"
"S.M.Biros"
"P.P.Gaspar"
"N.P.Rath"
"W.R.Winchester"
_chemical_name_systematic
;
2-bromo-1,1,1,3,3,3-hexamethyl-2-(trimethylsilyl)trisilane
;
_cell_volume   3832.817
_exptl_crystal_colour 'colorless'
_exptl_crystal_density_diffrn 1.135
_exptl_crystal_description 'block'
_diffrn_ambient_temperature 173.2
#These two values have been output from a single CSD field.
_refine_ls_R_factor_gt 0.0284
_refine_ls_wR_factor_gt 0.0284
_symmetry_cell_setting cubic
_symmetry_space_group_name_H-M 'P a -3'
_symmetry_Int_Tables_number 205
loop_
_symmetry_equiv_pos_site_id
_symmetry_equiv_pos_as_xyz
1 x,y,z
2 z,x,y
3 y,z,x
4 1/2-y,-z,1/2+x
5 1/2+z,1/2-x,-y
6 -y,1/2+z,1/2-x
7 1/2-z,-x,1/2+y
8 -z,1/2+x,1/2-y
9 1/2+y,1/2-z,-x
10 1/2-x,-y,1/2+z
11 1/2+x,1/2-y,-z
12 -x,1/2+y,1/2-z
13 -x,-y,-z
14 -z,-x,-y
15 -y,-z,-x
16 -1/2+y,z,-1/2-x
17 -1/2-z,-1/2+x,y
18 y,-1/2-z,-1/2+x
19 -1/2+z,x,-1/2-y
20 z,-1/2-x,-1/2+y
21 -1/2-y,-1/2+z,x
22 -1/2+x,y,-1/2-z
23 -1/2-x,-1/2+y,z
24 x,-1/2-y,-1/2+z
_cell_length_a 15.6497(19)
_cell_length_b 15.6497(19)
_cell_length_c 15.6497(19)
_cell_angle_alpha 90
_cell_angle_beta 90
_cell_angle_gamma 90
_cell_formula_units_Z 8
loop_
_atom_type_symbol
_atom_type_radius_bond
C 0.68
H 0.23
Br 1.21
Si 1.20
loop_
_atom_site_label
_atom_site_type_symbol
_atom_site_fract_x
_atom_site_fract_y
_atom_site_fract_z
Br1 Br 0.74011(2) 0.74011(2) 0.74011(2)
Si1 Si 0.65529(4) 0.65529(4) 0.65529(4)
Si2 Si 0.69238(5) 0.51472(4) 0.69229(5)
C1 C 0.6249(2) 0.43945(18) 0.6286(2)
H1 H 0.63310 0.45060 0.56750
H2 H 0.56460 0.44780 0.64340
H3 H 0.64150 0.38050 0.64140
C2 C 0.8079(2) 0.49575(19) 0.6707(3)
H4 H 0.82270 0.43700 0.68660
H5 H 0.84220 0.53580 0.70440
H6 H 0.81940 0.50440 0.60980
C3 C 0.6752(3) 0.49746(19) 0.8090(2)
H7 H 0.61420 0.50320 0.82220
H8 H 0.70760 0.54010 0.84140
H9 H 0.69460 0.44010 0.82470
Si2A Si 0.69229(5) 0.69238(4) 0.51472(5)
C1A C 0.6286(2) 0.62490(18) 0.43945(20)
H1A H 0.56750 0.63310 0.45060
H2A H 0.64340 0.56460 0.44780
H3A H 0.64140 0.64150 0.38050
C2A C 0.6707(2) 0.80790(19) 0.49575(30)
H4A H 0.68660 0.82270 0.43700
H5A H 0.70440 0.84220 0.53580
H6A H 0.60980 0.81940 0.50440
C3A C 0.8090(3) 0.67520(19) 0.49746(20)
H7A H 0.82220 0.61420 0.50320
H8A H 0.84140 0.70760 0.54010
H9A H 0.82470 0.69460 0.44010
Si2B Si 0.51472(5) 0.69229(4) 0.69238(5)
C1B C 0.43945(20) 0.62860(18) 0.6249(2)
H1B H 0.45060 0.56750 0.63310
H2B H 0.44780 0.64340 0.56460
H3B H 0.38050 0.64140 0.64150
C2B C 0.49575(20) 0.67070(19) 0.8079(3)
H4B H 0.43700 0.68660 0.82270
H5B H 0.53580 0.70440 0.84220
H6B H 0.50440 0.60980 0.81940
C3B C 0.49746(30) 0.80900(19) 0.6752(2)
H7B H 0.50320 0.82220 0.61420
H8B H 0.54010 0.84140 0.70760
H9B H 0.44010 0.82470 0.69460
#END

data_CSD_CIF_PIMRUY
_audit_creation_date 1994-10-27
_audit_creation_method CSD-ConQuest-V1
_database_code_CSD PIMRUY
_chemical_formula_sum 'C27 H18 Ir1 N3 S3'
_chemical_formula_moiety
;
C27 H18 Ir1 N3 S3
;
_journal_coden_Cambridge 9
_journal_volume 33
_journal_year 1994
_journal_page_first 545
_journal_name_full 'Inorg.Chem. '
loop_
_publ_author_name
"M.G.Colombo"
"T.C.Brunold"
"T.Riedener"
"H.U.Gudel"
"M.Fortsch"
"H.-B.Burgi"
_chemical_name_systematic
;
tris(2-(2-Pyridyl)thiophen-3-yl)-iridium
;
_cell_volume   4802.857
_exptl_crystal_density_diffrn 1.861
_diffrn_ambient_temperature ?
_diffrn_special_details
;
The study was carried out at room temperature,in the range 283-303K

;
#These two values have been output from a single CSD field.
_refine_ls_R_factor_gt 0.0212
_refine_ls_wR_factor_gt 0.0212
_symmetry_cell_setting cubic
_symmetry_space_group_name_H-M 'P a 3'
_symmetry_Int_Tables_number 205
loop_
_symmetry_equiv_pos_site_id
_symmetry_equiv_pos_as_xyz
1 x,y,z
2 z,x,y
3 y,z,x
4 1/2+x,y,1/2-z
5 1/2+z,x,1/2-y
6 1/2+y,z,1/2-x
7 1/2-x,1/2+y,z
8 1/2-z,1/2+x,y
9 1/2-y,1/2+z,x
10 -x,1/2+y,1/2-z
11 -z,1/2+x,1/2-y
12 -y,1/2+z,1/2-x
13 -x,-y,-z
14 -z,-x,-y
15 -y,-z,-x
16 -1/2-x,-y,-1/2+z
17 -1/2-z,-x,-1/2+y
18 -1/2-y,-z,-1/2+x
19 -1/2+x,-1/2-y,-z
20 -1/2+z,-1/2-x,-y
21 -1/2+y,-1/2-z,-x
22 x,-1/2-y,-1/2+z
23 z,-1/2-x,-1/2+y
24 y,-1/2-z,-1/2+x
_cell_length_a 16.872(4)
_cell_length_b 16.872(4)
_cell_length_c 16.872(4)
_cell_angle_alpha 90
_cell_angle_beta 90
_cell_angle_gamma 90
_cell_formula_units_Z 8
loop_
_atom_type_symbol
_atom_type_radius_bond
C 0.68
H 0.23
Ir 1.32
N 0.68
S 1.02
loop_
_atom_site_label
_atom_site_type_symbol
_atom_site_fract_x
_atom_site_fract_y
_atom_site_fract_z
Ir1 Ir 0.37518(1) 0.37518(1) 0.37518(1)
S1 S 0.4147(1) 0.4344(1) 0.1199(1)
N1 N 0.3930(3) 0.4974(3) 0.3476(3)
C1 C 0.4074(4) 0.5133(4) 0.2689(4)
C2 C 0.4182(4) 0.5900(4) 0.2434(4)
C3 C 0.4157(4) 0.6515(4) 0.2948(5)
C4 C 0.4009(4) 0.6370(4) 0.3730(4)
C5 C 0.3894(4) 0.5604(4) 0.3977(4)
C6 C 0.4051(4) 0.4417(4) 0.2219(4)
C7 C 0.3909(3) 0.3688(4) 0.2575(3)
C8 C 0.3864(4) 0.3067(4) 0.1998(4)
C9 C 0.3992(4) 0.3326(5) 0.1255(4)
H1 H 0.42770 0.60000 0.18880
H2 H 0.42410 0.70410 0.27670
H3 H 0.39860 0.67950 0.40990
H4 H 0.37850 0.55100 0.45210
H5 H 0.37580 0.25290 0.21270
H6 H 0.39950 0.29870 0.08050
N1A N 0.3476(3) 0.3930(3) 0.4974(3)
N1B N 0.4974(3) 0.3476(3) 0.3930(3)
C7A C 0.2575(3) 0.3909(4) 0.3688(3)
C7B C 0.3688(3) 0.2575(4) 0.3909(3)
C1A C 0.2689(4) 0.4074(4) 0.5133(4)
C5A C 0.3977(4) 0.3894(4) 0.5604(4)
C1B C 0.5133(4) 0.2689(4) 0.4074(4)
C5B C 0.5604(4) 0.3977(4) 0.3894(4)
C6A C 0.2219(4) 0.4051(4) 0.4417(4)
C8A C 0.1998(4) 0.3864(4) 0.3067(4)
C6B C 0.4417(4) 0.2219(4) 0.4051(4)
C8B C 0.3067(4) 0.1998(4) 0.3864(4)
C2A C 0.2434(4) 0.4182(4) 0.5900(4)
C4A C 0.3730(4) 0.4009(4) 0.6370(4)
H4A H 0.45210 0.37850 0.55100
C2B C 0.5900(4) 0.2434(4) 0.4182(4)
C4B C 0.6370(4) 0.3730(4) 0.4009(4)
H4B H 0.55100 0.45210 0.37850
S1A S 0.1199(1) 0.4147(1) 0.4344(1)
C9A C 0.1255(4) 0.3992(5) 0.3326(4)
H5A H 0.21270 0.37580 0.25290
S1B S 0.4344(1) 0.1199(1) 0.4147(1)
C9B C 0.3326(4) 0.1255(5) 0.3992(4)
H5B H 0.25290 0.21270 0.37580
C3A C 0.2948(4) 0.4157(4) 0.6515(5)
H1A H 0.18880 0.42770 0.60000
H3A H 0.40990 0.39860 0.67950
C3B C 0.6515(4) 0.2948(4) 0.4157(5)
H1B H 0.60000 0.18880 0.42770
H3B H 0.67950 0.40990 0.39860
H6A H 0.08050 0.39950 0.29870
H6B H 0.29870 0.08050 0.39950
H2A H 0.27670 0.42410 0.70410
H2B H 0.70410 0.27670 0.42410
#END

data_CSD_CIF_PIMRUY01
_audit_creation_date 2008-12-02
_audit_creation_method CSD-ConQuest-V1
_database_code_CSD PIMRUY01
_database_code_depnum_ccdc_archive 'CCDC 663942'
_chemical_formula_sum 'C27 H18 Ir1 N3 S3'
_chemical_formula_moiety
;
C27 H18 Ir1 N3 S3
;
_journal_coden_Cambridge 1078
_journal_year 2007
_journal_name_full 'CSD Communication(Private Communication) '
loop_
_publ_author_name
"A.S.Batsanov"
"S.Bettington"
"M.R.Bryce"
_chemical_name_systematic
;
tris(2-(2-pyridyl)thiophen-3-yl)-iridium
;
_cell_volume   4728.266
_exptl_crystal_colour 'orange'
_exptl_crystal_density_diffrn 1.89
_exptl_special_details
;
contribution from Department of Chemistry, University Science Laboratories, 
South Road, Durham, DH1 3LE, United Kingdom
;
_exptl_crystal_description 'cuboctahedron'
_diffrn_ambient_temperature 120
#These two values have been output from a single CSD field.
_refine_ls_R_factor_gt 0.0215
_refine_ls_wR_factor_gt 0.0215
_symmetry_cell_setting cubic
_symmetry_space_group_name_H-M 'P a -3'
_symmetry_Int_Tables_number 205
loop_
_symmetry_equiv_pos_site_id
_symmetry_equiv_pos_as_xyz
1 x,y,z
2 z,x,y
3 y,z,x
4 1/2-x,-y,1/2+z
5 -x,1/2+y,1/2-z
6 1/2+x,1/2-y,-z
7 1/2+z,1/2-x,-y
8 1/2-z,-x,1/2+y
9 -z,1/2+x,1/2-y
10 -y,1/2+z,1/2-x
11 1/2+y,1/2-z,-x
12 1/2-y,-z,1/2+x
13 -x,-y,-z
14 -z,-x,-y
15 -y,-z,-x
16 -1/2+x,y,-1/2-z
17 x,-1/2-y,-1/2+z
18 -1/2-x,-1/2+y,z
19 -1/2-z,-1/2+x,y
20 -1/2+z,x,-1/2-y
21 z,-1/2-x,-1/2+y
22 y,-1/2-z,-1/2+x
23 -1/2-y,-1/2+z,x
24 -1/2+y,z,-1/2-x
_cell_length_a 16.7842(17)
_cell_length_b 16.7842(17)
_cell_length_c 16.7842(17)
_cell_angle_alpha 90
_cell_angle_beta 90
_cell_angle_gamma 90
_cell_formula_units_Z 8
loop_
_atom_type_symbol
_atom_type_radius_bond
C 0.68
H 0.23
Ir 1.32
N 0.68
S 1.02
loop_
_atom_site_label
_atom_site_type_symbol
_atom_site_fract_x
_atom_site_fract_y
_atom_site_fract_z
Ir1 Ir 0.124668(7) 0.624668(7) 0.875332(7)
S1 S 0.06343(5) 0.88171(5) 0.91487(5)
N1 N 0.00124(16) 0.65224(16) 0.89201(15)
C1 C 0.1658(2) 0.8778(2) 0.8996(2)
H1 H 0.19980 0.92310 0.90020
C2 C 0.1913(2) 0.8015(2) 0.8873(2)
H2 H 0.24550 0.78860 0.87760
C3 C 0.12951(19) 0.74307(19) 0.88976(19)
C4 C 0.05659(19) 0.77925(18) 0.90412(19)
C5 C -0.01438(19) 0.73109(18) 0.90561(18)
C6 C -0.0939(2) 0.75609(19) 0.91672(19)
H3 H -0.10490 0.81080 0.92640
C7 C -0.1549(2) 0.7036(2) 0.9141(2)
H4 H -0.20820 0.72120 0.92180
C8 C -0.1391(2) 0.6245(2) 0.9000(2)
H5 H -0.18110 0.58660 0.89890
C9 C -0.0606(2) 0.6011(2) 0.88840(19)
H6 H -0.05010 0.54670 0.87690
S1H S 0.08513(5) 0.56343(5) 0.61829(5)
S1J S 0.38171(5) 0.58513(5) 0.93657(5)
N1H N 0.10799(16) 0.50124(16) 0.84776(15)
N1J N 0.15224(16) 0.60799(16) 0.99876(15)
C1H C 0.1004(2) 0.6658(2) 0.6222(2)
C1J C 0.3778(2) 0.6004(2) 0.8342(2)
H1H H 0.09980 0.69980 0.57690
H1J H 0.42310 0.59980 0.80020
C2H C 0.1127(2) 0.6913(2) 0.6985(2)
C2J C 0.3015(2) 0.6127(2) 0.8087(2)
H2H H 0.12240 0.74550 0.71140
H2J H 0.28860 0.62240 0.75450
C3H C 0.11024(19) 0.62951(19) 0.75693(19)
C3J C 0.24307(19) 0.61024(19) 0.87049(19)
C4H C 0.09588(19) 0.55659(18) 0.72075(19)
C4J C 0.27925(19) 0.59588(18) 0.94341(19)
C5H C 0.09439(19) 0.48562(18) 0.76891(18)
C5J C 0.23109(19) 0.59439(18) 1.01438(18)
C6J C 0.25609(20) 0.58328(19) 1.09390(19)
C6H C 0.08328(20) 0.40610(19) 0.74391(19)
H3J H 0.31080 0.57360 1.10490
H3H H 0.07360 0.39510 0.68920
C7J C 0.2036(2) 0.5859(2) 1.1549(2)
C7H C 0.0859(2) 0.3451(2) 0.7964(2)
H4J H 0.22120 0.57820 1.20820
H4H H 0.07820 0.29180 0.77880
C8J C 0.1245(2) 0.6000(2) 1.1391(2)
C8H C 0.1000(2) 0.3609(2) 0.8755(2)
H5J H 0.08660 0.60110 1.18110
H5H H 0.10110 0.31890 0.91340
C9J C 0.1011(2) 0.6116(2) 1.06060(19)
C9H C 0.1116(2) 0.4394(2) 0.89890(19)
H6J H 0.04670 0.62310 1.05010
H6H H 0.12310 0.44990 0.95330
#END

data_CSD_CIF_POWNOH
_audit_creation_date 2019-09-07
_audit_creation_method CSD-ConQuest-V1
_database_code_CSD POWNOH
_database_code_depnum_ccdc_archive 'CCDC 1922316'
_chemical_formula_sum 'C7 H30 Ge4 N4 S10'
_chemical_formula_moiety
;
Ge4 S10 4-,3(C2 H8 N1 1+),C1 H6 N1 1+
;
_journal_coden_Cambridge 9
_journal_volume 58
_journal_year 2019
_journal_page_first 12832
_journal_name_full 'Inorg.Chem. '
loop_
_publ_author_name
"Kai-Yao Wang"
"Shu Zhang"
"Hua-Wei Liu"
"Lin Cheng"
"Cheng Wang"
_chemical_name_systematic
;
tris(diethylammonium) methylammonium 
hexakis(\m-sulfido)-tris(sulfido)-tetra-germanium
;
_cell_volume   5774.067
_exptl_crystal_colour 'pink'
_exptl_crystal_density_diffrn 1.798
_exptl_crystal_description 'block'
_diffrn_ambient_temperature 293
#These two values have been output from a single CSD field.
_refine_ls_R_factor_gt 0.0283
_refine_ls_wR_factor_gt 0.0283
_symmetry_cell_setting cubic
_symmetry_space_group_name_H-M 'P a -3'
_symmetry_Int_Tables_number 205
loop_
_symmetry_equiv_pos_site_id
_symmetry_equiv_pos_as_xyz
1 x,y,z
2 1/2-x,-y,1/2+z
3 -x,1/2+y,1/2-z
4 1/2+x,1/2-y,-z
5 z,x,y
6 1/2+z,1/2-x,-y
7 1/2-z,-x,1/2+y
8 -z,1/2+x,1/2-y
9 y,z,x
10 -y,1/2+z,1/2-x
11 1/2+y,1/2-z,-x
12 1/2-y,-z,1/2+x
13 -x,-y,-z
14 -1/2+x,y,-1/2-z
15 x,-1/2-y,-1/2+z
16 -1/2-x,-1/2+y,z
17 -z,-x,-y
18 -1/2-z,-1/2+x,y
19 -1/2+z,x,-1/2-y
20 z,-1/2-x,-1/2+y
21 -y,-z,-x
22 y,-1/2-z,-1/2+x
23 -1/2-y,-1/2+z,x
24 -1/2+y,z,-1/2-x
_cell_length_a 17.9402(3)
_cell_length_b 17.9402(3)
_cell_length_c 17.9402(3)
_cell_angle_alpha 90
_cell_angle_beta 90
_cell_angle_gamma 90
_cell_formula_units_Z 8
loop_
_atom_type_symbol
_atom_type_radius_bond
C 0.68
H 0.23
Ge 1.17
N 0.68
S 1.02
loop_
_atom_site_label
_atom_site_type_symbol
_atom_site_fract_x
_atom_site_fract_y
_atom_site_fract_z
Ge1 Ge 0.17689(2) 0.17689(2) 0.17689(2)
Ge2 Ge 0.00959(2) 0.16950(2) 0.06785(2)
S1 S 0.07852(5) 0.24381(5) 0.14041(5)
S2 S 0.07272(5) 0.13311(5) -0.03243(5)
S3 S -0.08428(5) 0.23366(5) 0.03112(5)
S4 S 0.24577(5) 0.24577(5) 0.24577(5)
N1 N -0.22768(19) 0.15020(19) 0.0986(2)
H1 H -0.18220 0.16710 0.08820
H2 H -0.24070 0.16490 0.14410
H3 H -0.22780 0.10060 0.09650
C1 C -0.2826(3) 0.1808(4) 0.0423(5)
H4 H -0.28100 0.23480 0.04410
H5 H -0.26700 0.16560 -0.00720
C2 C -0.3551(5) 0.1581(5) 0.0533(5)
H6 H -0.38640 0.17970 0.01560
H7 H -0.35770 0.10480 0.05020
H8 H -0.37170 0.17410 0.10160
N2 N -0.1091(3) 0.3909(3) 0.1091(3)
H9 H -0.15740 0.39950 0.10150
C3 C -0.0610(4) 0.4390(4) 0.0610(4)
H10 H -0.06310 0.48820 0.07980
H11? H -0.15890 0.40110 0.10150
H12? H -0.06440 0.48950 0.07980
H13? H -0.15890 0.39950 0.09990
H14? H -0.06440 0.48820 0.07850
Ge2D Ge 0.06785(2) 0.00959(2) 0.16950(2)
S1D S 0.14041(5) 0.07852(5) 0.24381(5)
S2D S -0.03243(5) 0.07272(5) 0.13311(5)
S3D S 0.03112(5) -0.08428(5) 0.23366(5)
Ge2H Ge 0.16950(2) 0.06785(2) 0.00959(2)
S1H S 0.24381(5) 0.14041(5) 0.07852(5)
S2H S 0.13311(5) -0.03243(5) 0.07272(5)
S3H S 0.23366(5) 0.03112(5) -0.08428(5)
H9G H -0.10150 0.34260 0.10050
H9J H -0.10050 0.39850 0.15740
H10J H -0.01180 0.42020 0.06310
H10G H -0.07980 0.43690 0.01180
#END

data_CSD_CIF_QIJJEY
_audit_creation_date 2001-06-22
_audit_creation_method CSD-ConQuest-V1
_database_code_CSD QIJJEY
_database_code_depnum_ccdc_archive 'CCDC 153997'
_chemical_formula_sum 'C54 H108 N9 Os1 S6'
_chemical_formula_moiety
;
3(C16 H36 N1 1+),C6 N6 Os1 S6 3-
;
_journal_coden_Cambridge 29
_journal_volume 627
_journal_year 2001
_journal_page_first 615
_journal_name_full 'Z.Anorg.Allg.Chem. '
loop_
_publ_author_name
"O.Stahler"
"W.Preetz"
_chemical_name_systematic
;
tris(Tetra-n-butylammonium) hexakis(isothiocyanato)-osmium(iii)
;
_cell_volume  14436.596
_exptl_crystal_colour 'dark red'
_exptl_crystal_density_diffrn 1.165
_exptl_special_details
;
cubic polymorph

;
_exptl_crystal_description 'cubic'
_diffrn_ambient_temperature 220
#These two values have been output from a single CSD field.
_refine_ls_R_factor_gt 0.0315
_refine_ls_wR_factor_gt 0.0315
_symmetry_cell_setting cubic
_symmetry_space_group_name_H-M 'P a -3'
_symmetry_Int_Tables_number 205
loop_
_symmetry_equiv_pos_site_id
_symmetry_equiv_pos_as_xyz
1 x,y,z
2 1/2-x,-y,1/2+z
3 1/2+x,1/2-y,-z
4 z,x,y
5 -x,1/2+y,1/2-z
6 1/2-z,-x,1/2+y
7 1/2+z,1/2-x,-y
8 -z,1/2+x,1/2-y
9 y,z,x
10 1/2+y,1/2-z,-x
11 -y,1/2+z,1/2-x
12 1/2-y,-z,1/2+x
13 -x,-y,-z
14 -1/2+x,y,-1/2-z
15 -1/2-x,-1/2+y,z
16 -z,-x,-y
17 x,-1/2-y,-1/2+z
18 -1/2+z,x,-1/2-y
19 -1/2-z,-1/2+x,y
20 z,-1/2-x,-1/2+y
21 -y,-z,-x
22 -1/2-y,-1/2+z,x
23 y,-1/2-z,-1/2+x
24 -1/2+y,z,-1/2-x
_cell_length_a 24.3494(9)
_cell_length_b 24.3494(9)
_cell_length_c 24.3494(9)
_cell_angle_alpha 90
_cell_angle_beta 90
_cell_angle_gamma 90
_cell_formula_units_Z 8
loop_
_atom_type_symbol
_atom_type_radius_bond
C 0.68
H 0.23
N 0.68
Os 1.37
S 1.02
loop_
_atom_site_label
_atom_site_type_symbol
_atom_site_fract_x
_atom_site_fract_y
_atom_site_fract_z
Os1 Os 0.808869(5) 0.308869(5) 0.191131(5)
N1 N 0.75476(12) 0.33525(12) 0.24829(12)
C1 C 0.72517(14) 0.34462(14) 0.28345(14)
S1 S 0.68266(4) 0.35832(5) 0.33319(4)
N2 N 0.86344(12) 0.27944(12) 0.13607(12)
C2 C 0.89553(15) 0.25908(15) 0.10757(14)
S2 S 0.94082(5) 0.23170(5) 0.06682(5)
N3 N 0.74220(12) 0.53152(11) 0.23656(13)
C3 C 0.69573(16) 0.49244(15) 0.25224(18)
H1 H 0.67760 0.47990 0.21850
H2 H 0.71170 0.46010 0.27010
C4 C 0.65250(19) 0.51678(18) 0.2902(2)
H3 H 0.66670 0.51650 0.32780
H4 H 0.64630 0.55520 0.27980
C5 C 0.5991(2) 0.4875(2) 0.2892(3)
H5 H 0.60500 0.44930 0.30050
H6 H 0.58520 0.48700 0.25140
C6 C 0.5565(2) 0.5127(2) 0.3257(3)
H7 H 0.52280 0.49170 0.32320
H8 H 0.54970 0.55020 0.31420
H9 H 0.56960 0.51240 0.36340
C7 C 0.78262(16) 0.49833(15) 0.20201(17)
H10 H 0.79510 0.46680 0.22370
H11 H 0.76320 0.48400 0.16980
C8 C 0.83238(17) 0.52979(17) 0.18260(19)
H12 H 0.85730 0.53580 0.21360
H13 H 0.82090 0.56580 0.16880
C9 C 0.86234(18) 0.49903(18) 0.13765(19)
H14 H 0.83720 0.49260 0.10690
H15 H 0.87410 0.46320 0.15170
C10 C 0.91326(19) 0.5311(3) 0.1168(2)
H16 H 0.93130 0.51020 0.08810
H17 H 0.93860 0.53690 0.14700
H18 H 0.90170 0.56640 0.10220
C11 C 0.71939(17) 0.57966(15) 0.20414(18)
H19 H 0.69360 0.59970 0.22770
H20 H 0.74970 0.60460 0.19540
C12 C 0.6906(2) 0.5651(2) 0.1518(2)
H21 H 0.66270 0.53720 0.15970
H22 H 0.71730 0.54890 0.12640
C13 C 0.6637(2) 0.6131(2) 0.1245(2)
H23 H 0.69150 0.64030 0.11440
H24 H 0.63780 0.63040 0.14990
C14 C 0.6321(3) 0.5932(3) 0.0712(3)
H25 H 0.61470 0.62440 0.05360
H26 H 0.60430 0.56660 0.08140
H27 H 0.65790 0.57640 0.04590
C15 C 0.76918(18) 0.55526(17) 0.28742(18)
H28 H 0.79910 0.57950 0.27580
H29 H 0.74210 0.57790 0.30680
C16 C 0.7922(2) 0.5136(2) 0.3275(2)
H30 H 0.82290 0.49390 0.31050
H31 H 0.76380 0.48670 0.33710
C17 C 0.8121(3) 0.5430(3) 0.3798(3)
H32 H 0.84040 0.56970 0.36950
H33 H 0.78130 0.56360 0.39550
C18 C 0.8348(5) 0.5067(5) 0.4227(4)
H34 H 0.84630 0.52860 0.45400
H35 H 0.86620 0.48690 0.40820
H36 H 0.80690 0.48070 0.43420
N1G N 0.75171(12) 0.25476(12) 0.16475(12)
N1I N 0.83525(12) 0.25171(12) 0.24524(12)
C1G C 0.71655(14) 0.22517(14) 0.15538(14)
C1I C 0.84462(14) 0.21655(14) 0.27483(14)
S1G S 0.66681(4) 0.18266(5) 0.14168(4)
S1I S 0.85832(4) 0.16681(5) 0.31734(4)
N2G N 0.86393(12) 0.36344(12) 0.22056(12)
N2I N 0.77944(12) 0.36393(12) 0.13656(12)
C2G C 0.89243(15) 0.39553(15) 0.24092(14)
C2I C 0.75908(15) 0.39243(15) 0.10447(14)
S2G S 0.93318(5) 0.44082(5) 0.26830(5)
S2I S 0.73170(5) 0.43318(5) 0.05918(5)
#END

data_CSD_CIF_QIZSEY
_audit_creation_date 2008-09-17
_audit_creation_method CSD-ConQuest-V1
_database_code_CSD QIZSEY
_database_code_depnum_ccdc_archive 'CCDC 653246'
_chemical_formula_sum 'C84 H168 N12 O26 Zn8'
_chemical_formula_moiety
;
C84 H168 N12 O26 Zn8
;
_journal_coden_Cambridge 1290
_journal_year 2008
_journal_page_first 2024
_journal_name_full 'Eur.J.Inorg.Chem. '
loop_
_publ_author_name
"P.F.Haywood"
"M.R.Hill"
"N.K.Roberts"
"D.C.Craig"
"J.J.Russell"
"R.N.Lamb"
_chemical_name_systematic
;
bis(\m~4~-Oxo)-hexakis(\m~3~-N,N-di-isopropylcarbamato-O,O,O')-hexakis(\m~2~-N
,N-di-isopropylcarbamato-O,O')-octa-zinc(ii)
;
_cell_volume  11533.985
_exptl_crystal_colour 'colorless'
_exptl_crystal_density_diffrn 1.32
_exptl_special_details
;
Isostructural with Co(ii), Fe(ii), Mn(ii) and Ni(ii) analogues

;
_exptl_crystal_description 'prism'
_exptl_crystal_preparation 'n-tetradecane'
_diffrn_ambient_temperature 150
#These two values have been output from a single CSD field.
_refine_ls_R_factor_gt 0.028
_refine_ls_wR_factor_gt 0.028
_symmetry_cell_setting cubic
_symmetry_space_group_name_H-M 'P a -3'
_symmetry_Int_Tables_number 205
loop_
_symmetry_equiv_pos_site_id
_symmetry_equiv_pos_as_xyz
1 x,y,z
2 1/2-x,-y,1/2+z
3 1/2+x,1/2-y,-z
4 z,x,y
5 -x,1/2+y,1/2-z
6 1/2-z,-x,1/2+y
7 1/2+z,1/2-x,-y
8 -z,1/2+x,1/2-y
9 y,z,x
10 1/2+y,1/2-z,-x
11 -y,1/2+z,1/2-x
12 1/2-y,-z,1/2+x
13 -x,-y,-z
14 -1/2+x,y,-1/2-z
15 -1/2-x,-1/2+y,z
16 -z,-x,-y
17 x,-1/2-y,-1/2+z
18 -1/2+z,x,-1/2-y
19 -1/2-z,-1/2+x,y
20 z,-1/2-x,-1/2+y
21 -y,-z,-x
22 -1/2-y,-1/2+z,x
23 y,-1/2-z,-1/2+x
24 -1/2+y,z,-1/2-x
_cell_length_a 22.594(2)
_cell_length_b 22.594(2)
_cell_length_c 22.594(2)
_cell_angle_alpha 90
_cell_angle_beta 90
_cell_angle_gamma 90
_cell_formula_units_Z 4
loop_
_atom_type_symbol
_atom_type_radius_bond
C 0.68
H 0.23
N 0.68
O 0.68
Zn 1.31
loop_
_atom_site_label
_atom_site_type_symbol
_atom_site_fract_x
_atom_site_fract_y
_atom_site_fract_z
Zn1 Zn 0.59574(1) 0.59574(1) 0.59574(1)
Zn2 Zn 0.49255(1) 0.50935(1) 0.60367(1)
O1 O 0.54598(5) 0.54598(5) 0.54598(5)
O2 O 0.58673(7) 0.58044(7) 0.68027(6)
O3 O 0.52346(7) 0.50349(6) 0.68482(6)
N1 N 0.54968(8) 0.55262(8) 0.76795(7)
C1 C 0.55299(9) 0.54517(9) 0.70824(8)
C2 C 0.5624(2) 0.6619(1) 0.7770(2)
C3 C 0.5812(1) 0.6006(1) 0.7987(1)
C4 C 0.6475(1) 0.5924(2) 0.7978(1)
C5 C 0.5394(2) 0.4831(2) 0.8520(2)
C6 C 0.5078(1) 0.5160(1) 0.8023(1)
C7 C 0.4560(2) 0.5521(2) 0.8250(2)
O4 O 0.41519(6) 0.47162(6) 0.58007(6)
O5 O 0.44531(6) 0.58547(6) 0.62434(6)
N2 N 0.35505(8) 0.40750(8) 0.62869(8)
C8 C 0.39637(8) 0.41714(8) 0.58674(9)
C9 C 0.2745(1) 0.4763(2) 0.6569(2)
C10 C 0.3364(1) 0.4557(1) 0.6688(1)
C11 C 0.3479(2) 0.4392(2) 0.7330(1)
C12 C 0.3642(2) 0.3010(1) 0.6535(2)
C13 C 0.3245(1) 0.3497(1) 0.6320(1)
C14 C 0.2914(1) 0.3356(1) 0.5760(2)
H1 H 0.51830 0.66520 0.77840
H2 H 0.58030 0.69290 0.80300
H3 H 0.57630 0.66770 0.73540
H4 H 0.56900 0.59820 0.84120
H5 H 0.65760 0.55180 0.81230
H6 H 0.66240 0.59730 0.75640
H7 H 0.66650 0.62250 0.82400
H8 H 0.57320 0.45990 0.83520
H9 H 0.55480 0.51220 0.88160
H10 H 0.51100 0.45550 0.87190
H11 H 0.49140 0.48550 0.77470
H12 H 0.43650 0.57290 0.79120
H13 H 0.42680 0.52520 0.84460
H14 H 0.47050 0.58190 0.85430
H15 H 0.27030 0.48630 0.61400
H16 H 0.24600 0.44410 0.66740
H17 H 0.26600 0.51220 0.68130
H18 H 0.36280 0.49010 0.66000
H19 H 0.38980 0.42590 0.73760
H20 H 0.34060 0.47440 0.75880
H21 H 0.32060 0.40640 0.74490
H22 H 0.38440 0.31380 0.69080
H23 H 0.34000 0.26480 0.66160
H24 H 0.39450 0.29200 0.62260
H25 H 0.29340 0.35440 0.66320
H26 H 0.26610 0.37010 0.56470
H27 H 0.32030 0.32720 0.54350
H28 H 0.26590 0.30000 0.58250
Zn1L Zn 0.40426(1) 0.40426(1) 0.40426(1)
Zn2C Zn 0.60367(1) 0.49255(1) 0.50935(1)
Zn2H Zn 0.50935(1) 0.60367(1) 0.49255(1)
Zn2L Zn 0.50745(1) 0.49065(1) 0.39633(1)
Zn2T Zn 0.49065(1) 0.39633(1) 0.50745(1)
Zn2O Zn 0.39633(1) 0.50745(1) 0.49065(1)
O1L O 0.45402(5) 0.45402(5) 0.45402(5)
O2C O 0.68027(7) 0.58673(7) 0.58044(6)
O2H O 0.58044(7) 0.68027(7) 0.58673(6)
O2L O 0.41327(7) 0.41956(7) 0.31973(6)
O2O O 0.31973(7) 0.41327(7) 0.41956(6)
O2T O 0.41956(7) 0.31973(7) 0.41327(6)
O3C O 0.68482(7) 0.52346(6) 0.50349(6)
O3H O 0.50349(7) 0.68482(6) 0.52346(6)
O3L O 0.47654(7) 0.49651(6) 0.31518(6)
O3O O 0.31518(7) 0.47654(6) 0.49651(6)
O3T O 0.49651(7) 0.31518(6) 0.47654(6)
N1H N 0.55262(8) 0.76795(8) 0.54968(7)
N1T N 0.44738(8) 0.23205(8) 0.45032(7)
N1O N 0.23205(8) 0.45032(8) 0.44738(7)
N1L N 0.45032(8) 0.44738(8) 0.23205(7)
N1C N 0.76795(8) 0.54968(8) 0.55262(7)
C1C C 0.70824(9) 0.55299(9) 0.54517(8)
C1H C 0.54517(9) 0.70824(9) 0.55299(8)
C1L C 0.44701(9) 0.45483(9) 0.29176(8)
C1O C 0.29176(9) 0.44701(9) 0.45483(8)
C1T C 0.45483(9) 0.29176(9) 0.44701(8)
C2H C 0.6619(2) 0.7770(1) 0.5624(2)
C2T C 0.3381(2) 0.2230(1) 0.4376(2)
C2O C 0.2230(2) 0.4376(1) 0.3381(2)
C2L C 0.4376(2) 0.3381(1) 0.2230(2)
C2C C 0.7770(2) 0.5624(1) 0.6619(2)
C3H C 0.6006(1) 0.7987(1) 0.5812(1)
C3T C 0.3994(1) 0.2013(1) 0.4188(1)
C3O C 0.2013(1) 0.4188(1) 0.3994(1)
C3L C 0.4188(1) 0.3994(1) 0.2013(1)
C3C C 0.7987(1) 0.5812(1) 0.6006(1)
C4H C 0.5924(1) 0.7978(2) 0.6475(1)
C4T C 0.4076(1) 0.2022(2) 0.3525(1)
C4O C 0.2022(1) 0.3525(2) 0.4076(1)
C4L C 0.3525(1) 0.4076(2) 0.2022(1)
C4C C 0.7978(1) 0.6475(2) 0.5924(1)
C5H C 0.4831(2) 0.8520(2) 0.5394(2)
C5T C 0.5169(2) 0.1480(2) 0.4606(2)
C5O C 0.1480(2) 0.4606(2) 0.5169(2)
C5L C 0.4606(2) 0.5169(2) 0.1480(2)
C5C C 0.8520(2) 0.5394(2) 0.4831(2)
C6H C 0.5160(1) 0.8023(1) 0.5078(1)
C6T C 0.4840(1) 0.1977(1) 0.4922(1)
C6O C 0.1977(1) 0.4922(1) 0.4840(1)
C6L C 0.4922(1) 0.4840(1) 0.1977(1)
C6C C 0.8023(1) 0.5078(1) 0.5160(1)
C7H C 0.5521(2) 0.8250(2) 0.4560(2)
C7T C 0.4479(2) 0.1750(2) 0.5440(2)
C7O C 0.1750(2) 0.5440(2) 0.4479(2)
C7L C 0.5440(2) 0.4479(2) 0.1750(2)
C7C C 0.8250(2) 0.4560(2) 0.5521(2)
O4H O 0.47162(6) 0.58007(6) 0.41519(6)
O4L O 0.58481(6) 0.52838(6) 0.41993(6)
O4C O 0.58007(6) 0.41519(6) 0.47162(6)
O4T O 0.52838(6) 0.41993(6) 0.58481(6)
O4O O 0.41993(6) 0.58481(6) 0.52838(6)
O5H O 0.58547(6) 0.62434(6) 0.44531(6)
O5O O 0.37566(6) 0.55469(6) 0.41453(6)
O5T O 0.41453(6) 0.37566(6) 0.55469(6)
O5C O 0.62434(6) 0.44531(6) 0.58547(6)
O5L O 0.55469(6) 0.41453(6) 0.37566(6)
N2L N 0.64495(8) 0.59250(8) 0.37131(8)
N2O N 0.37131(8) 0.64495(8) 0.59250(8)
N2H N 0.40750(8) 0.62869(8) 0.35505(8)
N2T N 0.59250(8) 0.37131(8) 0.64495(8)
N2C N 0.62869(8) 0.35505(8) 0.40750(8)
C8L C 0.60363(8) 0.58286(8) 0.41326(9)
C8O C 0.41326(8) 0.60363(8) 0.58286(9)
C8H C 0.41714(8) 0.58674(8) 0.39637(9)
C8T C 0.58286(8) 0.41326(8) 0.60363(9)
C8C C 0.58674(8) 0.39637(8) 0.41714(9)
C9L C 0.7255(1) 0.5237(2) 0.3431(2)
C9O C 0.3431(1) 0.7255(2) 0.5237(2)
C9H C 0.4763(1) 0.6569(2) 0.2745(2)
C9T C 0.5237(1) 0.3431(2) 0.7255(2)
C9C C 0.6569(1) 0.2745(2) 0.4763(2)
C10L C 0.6636(1) 0.5443(1) 0.3312(1)
C10O C 0.3312(1) 0.6636(1) 0.5443(1)
C10H C 0.4557(1) 0.6688(1) 0.3364(1)
C10T C 0.5443(1) 0.3312(1) 0.6636(1)
C10C C 0.6688(1) 0.3364(1) 0.4557(1)
C11L C 0.6521(2) 0.5608(2) 0.2670(1)
C11O C 0.2670(2) 0.6521(2) 0.5608(1)
C11H C 0.4392(2) 0.7330(2) 0.3479(1)
C11T C 0.5608(2) 0.2670(2) 0.6521(1)
C11C C 0.7330(2) 0.3479(2) 0.4392(1)
C12L C 0.6358(2) 0.6990(1) 0.3465(2)
C12O C 0.3465(2) 0.6358(1) 0.6990(2)
C12H C 0.3010(2) 0.6535(1) 0.3642(2)
C12T C 0.6990(2) 0.3465(1) 0.6358(2)
C12C C 0.6535(2) 0.3642(1) 0.3010(2)
C13L C 0.6755(1) 0.6503(1) 0.3680(1)
C13O C 0.3680(1) 0.6755(1) 0.6503(1)
C13H C 0.3497(1) 0.6320(1) 0.3245(1)
C13T C 0.6503(1) 0.3680(1) 0.6755(1)
C13C C 0.6320(1) 0.3245(1) 0.3497(1)
C14L C 0.7086(1) 0.6644(1) 0.4240(2)
C14O C 0.4240(1) 0.7086(1) 0.6644(2)
C14H C 0.3356(1) 0.5760(1) 0.2914(2)
C14T C 0.6644(1) 0.4240(1) 0.7086(2)
C14C C 0.5760(1) 0.2914(1) 0.3356(2)
H1H H 0.66520 0.77840 0.51830
H1T H 0.33480 0.22160 0.48170
H1O H 0.22160 0.48170 0.33480
H1L H 0.48170 0.33480 0.22160
H1C H 0.77840 0.51830 0.66520
H2H H 0.69290 0.80300 0.58030
H2T H 0.30710 0.19700 0.41970
H2O H 0.19700 0.41970 0.30710
H2L H 0.41970 0.30710 0.19700
H2C H 0.80300 0.58030 0.69290
H3H H 0.66770 0.73540 0.57630
H3T H 0.33230 0.26460 0.42370
H3O H 0.26460 0.42370 0.33230
H3L H 0.42370 0.33230 0.26460
H3C H 0.73540 0.57630 0.66770
H4H H 0.59820 0.84120 0.56900
H4T H 0.40180 0.15880 0.43100
H4O H 0.15880 0.43100 0.40180
H4L H 0.43100 0.40180 0.15880
H4C H 0.84120 0.56900 0.59820
H5H H 0.55180 0.81230 0.65760
H5T H 0.44820 0.18770 0.34240
H5O H 0.18770 0.34240 0.44820
H5L H 0.34240 0.44820 0.18770
H5C H 0.81230 0.65760 0.55180
H6H H 0.59730 0.75640 0.66240
H6T H 0.40270 0.24360 0.33760
H6O H 0.24360 0.33760 0.40270
H6L H 0.33760 0.40270 0.24360
H6C H 0.75640 0.66240 0.59730
H7H H 0.62250 0.82400 0.66650
H7T H 0.37750 0.17600 0.33350
H7O H 0.17600 0.33350 0.37750
H7L H 0.33350 0.37750 0.17600
H7C H 0.82400 0.66650 0.62250
H8H H 0.45990 0.83520 0.57320
H8T H 0.54010 0.16480 0.42680
H8O H 0.16480 0.42680 0.54010
H8L H 0.42680 0.54010 0.16480
H8C H 0.83520 0.57320 0.45990
H9H H 0.51220 0.88160 0.55480
H9T H 0.48780 0.11840 0.44520
H9O H 0.11840 0.44520 0.48780
H9L H 0.44520 0.48780 0.11840
H9C H 0.88160 0.55480 0.51220
H10H H 0.45550 0.87190 0.51100
H10T H 0.54450 0.12810 0.48900
H10O H 0.12810 0.48900 0.54450
H10L H 0.48900 0.54450 0.12810
H10C H 0.87190 0.51100 0.45550
H11H H 0.48550 0.77470 0.49140
H11T H 0.51450 0.22530 0.50860
H11O H 0.22530 0.50860 0.51450
H11L H 0.50860 0.51450 0.22530
H11C H 0.77470 0.49140 0.48550
H12H H 0.57290 0.79120 0.43650
H12T H 0.42710 0.20880 0.56350
H12O H 0.20880 0.56350 0.42710
H12L H 0.56350 0.42710 0.20880
H12C H 0.79120 0.43650 0.57290
H13H H 0.52520 0.84460 0.42680
H13T H 0.47480 0.15540 0.57320
H13O H 0.15540 0.57320 0.47480
H13L H 0.57320 0.47480 0.15540
H13C H 0.84460 0.42680 0.52520
H14H H 0.58190 0.85430 0.47050
H14T H 0.41810 0.14570 0.52950
H14O H 0.14570 0.52950 0.41810
H14L H 0.52950 0.41810 0.14570
H14C H 0.85430 0.47050 0.58190
H15L H 0.72970 0.51370 0.38600
H15O H 0.38600 0.72970 0.51370
H15H H 0.48630 0.61400 0.27030
H15T H 0.51370 0.38600 0.72970
H15C H 0.61400 0.27030 0.48630
H16L H 0.75400 0.55590 0.33260
H16O H 0.33260 0.75400 0.55590
H16H H 0.44410 0.66740 0.24600
H16T H 0.55590 0.33260 0.75400
H16C H 0.66740 0.24600 0.44410
H17L H 0.73400 0.48780 0.31870
H17O H 0.31870 0.73400 0.48780
H17H H 0.51220 0.68130 0.26600
H17T H 0.48780 0.31870 0.73400
H17C H 0.68130 0.26600 0.51220
H18L H 0.63720 0.50990 0.34000
H18O H 0.34000 0.63720 0.50990
H18H H 0.49010 0.66000 0.36280
H18T H 0.50990 0.34000 0.63720
H18C H 0.66000 0.36280 0.49010
H19L H 0.61020 0.57410 0.26240
H19O H 0.26240 0.61020 0.57410
H19H H 0.42590 0.73760 0.38980
H19T H 0.57410 0.26240 0.61020
H19C H 0.73760 0.38980 0.42590
H20L H 0.65940 0.52560 0.24120
H20O H 0.24120 0.65940 0.52560
H20H H 0.47440 0.75880 0.34060
H20T H 0.52560 0.24120 0.65940
H20C H 0.75880 0.34060 0.47440
H21L H 0.67940 0.59360 0.25510
H21O H 0.25510 0.67940 0.59360
H21H H 0.40640 0.74490 0.32060
H21T H 0.59360 0.25510 0.67940
H21C H 0.74490 0.32060 0.40640
H22L H 0.61560 0.68620 0.30920
H22O H 0.30920 0.61560 0.68620
H22H H 0.31380 0.69080 0.38440
H22T H 0.68620 0.30920 0.61560
H22C H 0.69080 0.38440 0.31380
H23L H 0.66000 0.73520 0.33840
H23O H 0.33840 0.66000 0.73520
H23H H 0.26480 0.66160 0.34000
H23T H 0.73520 0.33840 0.66000
H23C H 0.66160 0.34000 0.26480
H24L H 0.60550 0.70800 0.37740
H24O H 0.37740 0.60550 0.70800
H24H H 0.29200 0.62260 0.39450
H24T H 0.70800 0.37740 0.60550
H24C H 0.62260 0.39450 0.29200
H25L H 0.70660 0.64560 0.33680
H25O H 0.33680 0.70660 0.64560
H25H H 0.35440 0.66320 0.29340
H25T H 0.64560 0.33680 0.70660
H25C H 0.66320 0.29340 0.35440
H26L H 0.73390 0.62990 0.43530
H26O H 0.43530 0.73390 0.62990
H26H H 0.37010 0.56470 0.26610
H26T H 0.62990 0.43530 0.73390
H26C H 0.56470 0.26610 0.37010
H27L H 0.67970 0.67280 0.45650
H27O H 0.45650 0.67970 0.67280
H27H H 0.32720 0.54350 0.32030
H27T H 0.67280 0.45650 0.67970
H27C H 0.54350 0.32030 0.32720
H28L H 0.73410 0.70000 0.41750
H28O H 0.41750 0.73410 0.70000
H28H H 0.30000 0.58250 0.26590
H28T H 0.70000 0.41750 0.73410
H28C H 0.58250 0.26590 0.30000
#END

data_CSD_CIF_QOHVOY
_audit_creation_date 2001-08-09
_audit_creation_method CSD-ConQuest-V1
_database_code_CSD QOHVOY
_database_code_depnum_ccdc_archive 'CCDC 160194'
_chemical_formula_sum 'C12 H18 Ga1 N3 O6'
_chemical_formula_moiety
;
C12 H18 Ga1 N3 O6
;
_journal_coden_Cambridge 9
_journal_volume 40
_journal_year 2001
_journal_page_first 493
_journal_name_full 'Inorg.Chem. '
loop_
_publ_author_name
"Hongyan Luo"
"N.Eberly"
"R.D.Rogers"
"M.W.Brechbiel"
_chemical_name_systematic
;
(cis,cis-1,3,5-Triaminocyclohexane-N,N',N''-triacetato)-gallium(iii)
;
_cell_volume   2789.050
_exptl_crystal_colour 'colorless'
_exptl_crystal_density_diffrn 1.762
_exptl_crystal_description 'parallelepiped'
_exptl_crystal_preparation 'methanol'
_diffrn_ambient_temperature 173
#These two values have been output from a single CSD field.
_refine_ls_R_factor_gt 0.043
_refine_ls_wR_factor_gt 0.043
_symmetry_cell_setting cubic
_symmetry_space_group_name_H-M 'P a -3'
_symmetry_Int_Tables_number 205
loop_
_symmetry_equiv_pos_site_id
_symmetry_equiv_pos_as_xyz
1 x,y,z
2 z,x,y
3 y,z,x
4 1/2+x,y,1/2-z
5 x,1/2-y,1/2+z
6 1/2-x,1/2+y,z
7 1/2-z,1/2+x,y
8 1/2+z,x,1/2-y
9 z,1/2-x,1/2+y
10 y,1/2-z,1/2+x
11 1/2-y,1/2+z,x
12 1/2+y,z,1/2-x
13 -x,-y,-z
14 -z,-x,-y
15 -y,-z,-x
16 -1/2-x,-y,-1/2+z
17 -x,-1/2+y,-1/2-z
18 -1/2+x,-1/2-y,-z
19 -1/2+z,-1/2-x,-y
20 -1/2-z,-x,-1/2+y
21 -z,-1/2+x,-1/2-y
22 -y,-1/2+z,-1/2-x
23 -1/2+y,-1/2-z,-x
24 -1/2-y,-z,-1/2+x
_cell_length_a 14.0762(1)
_cell_length_b 14.0762(1)
_cell_length_c 14.0762(1)
_cell_angle_alpha 90
_cell_angle_beta 90
_cell_angle_gamma 90
_cell_formula_units_Z 8
loop_
_atom_type_symbol
_atom_type_radius_bond
C 0.68
H 0.23
Ga 1.22
N 0.68
O 0.68
loop_
_atom_site_label
_atom_site_type_symbol
_atom_site_fract_x
_atom_site_fract_y
_atom_site_fract_z
Ga1 Ga 0.21216(2) 0.21216(2) 0.21216(2)
O1 O 0.2088(2) 0.21373(15) 0.35060(15)
O2 O 0.1880(2) 0.1269(2) 0.4805(2)
N1 N 0.1916(2) 0.0668(2) 0.2311(2)
H1 H 0.2530(2) 0.0369(2) 0.2178(2)
C1 C 0.1240(2) 0.0191(2) 0.1634(2)
H2 H 0.1183(2) -0.0494(2) 0.1815(2)
C2 C 0.0248(2) 0.0635(2) 0.1665(2)
H3 H 0.0034(2) 0.0663(2) 0.2334(2)
H4 H -0.0197(2) 0.0216(2) 0.1316(2)
C3 C 0.1690(2) 0.0491(2) 0.3324(2)
H5 H 0.2060(2) -0.0060(2) 0.3555(2)
H6 H 0.1007(2) 0.0333(2) 0.3382(2)
C4 C 0.1912(2) 0.1353(2) 0.3938(2)
O1A O 0.3506(2) 0.20880(15) 0.21373(15)
C4A C 0.3938(2) 0.1912(2) 0.1353(2)
O2A O 0.4805(2) 0.1880(2) 0.1269(2)
C3A C 0.3324(2) 0.1690(2) 0.0491(2)
N1A N 0.2311(2) 0.1916(2) 0.0668(2)
O1B O 0.21373(20) 0.35060(15) 0.20880(15)
C4B C 0.1353(2) 0.3938(2) 0.1912(2)
O2B O 0.1269(2) 0.4805(2) 0.1880(2)
C3B C 0.0491(2) 0.3324(2) 0.1690(2)
N1B N 0.0668(2) 0.2311(2) 0.1916(2)
H1B H 0.0369(2) 0.2178(2) 0.2530(2)
C1B C 0.0191(2) 0.1634(2) 0.1240(2)
H2B H -0.0494(2) 0.1815(2) 0.1183(2)
C2B C 0.0635(2) 0.1665(2) 0.0248(2)
C1A C 0.1634(2) 0.1240(2) 0.0191(2)
H1A H 0.2178(2) 0.2530(2) 0.0369(2)
H2A H 0.1815(2) 0.1183(2) -0.0494(2)
C2A C 0.1665(2) 0.0248(2) 0.0635(2)
H3A H 0.2334(2) 0.0034(2) 0.0663(2)
H4A H 0.1316(2) -0.0197(2) 0.0216(2)
H3B H 0.0663(2) 0.2334(2) 0.0034(2)
H4B H 0.0216(2) 0.1316(2) -0.0197(2)
H5B H -0.0060(2) 0.3555(2) 0.2060(2)
H6B H 0.0333(2) 0.3382(2) 0.1007(2)
H5A H 0.3555(2) 0.2060(2) -0.0060(2)
H6A H 0.3382(2) 0.1007(2) 0.0333(2)
#END

data_CSD_CIF_QOJKIL
_audit_creation_date 2014-08-14
_audit_creation_method CSD-ConQuest-V1
_database_code_CSD QOJKIL
_database_code_depnum_ccdc_archive 'CCDC 993204'
_chemical_formula_sum 'C33 H72 Cl1 N9 Zr1'
_chemical_formula_moiety
;
C27 H60 Cl1 N9 Zr1,C6 H12
;
_journal_coden_Cambridge 154
_journal_volume 67
_journal_year 2014
_journal_page_first 1063
_journal_name_full 'Aust.J.Chem. '
loop_
_publ_author_name
"R.Fernandez-Galan"
"J.-A.Navarro"
"F.Carrillo-Hermosilla"
"A.Antinolo"
"I.Lopez-Solera"
"E.Villasenor"
_chemical_name_systematic
;
tris((N'-t-butyl-N,N-dimethylcarbamimidoyl)(ethyl)amido)-chloro-zirconium(iv) 
cyclohexane solvate
;
_cell_volume   8039.906
_exptl_crystal_colour 'colorless'
_exptl_crystal_density_diffrn 1.192
_exptl_crystal_description 'Cubic'
_diffrn_ambient_temperature 250
#These two values have been output from a single CSD field.
_refine_ls_R_factor_gt 0.0363
_refine_ls_wR_factor_gt 0.0363
_symmetry_cell_setting cubic
_symmetry_space_group_name_H-M 'P a -3'
_symmetry_Int_Tables_number 205
loop_
_symmetry_equiv_pos_site_id
_symmetry_equiv_pos_as_xyz
1 x,y,z
2 1/2-x,-y,1/2+z
3 -x,1/2+y,1/2-z
4 1/2+x,1/2-y,-z
5 z,x,y
6 1/2+z,1/2-x,-y
7 1/2-z,-x,1/2+y
8 -z,1/2+x,1/2-y
9 y,z,x
10 -y,1/2+z,1/2-x
11 1/2+y,1/2-z,-x
12 1/2-y,-z,1/2+x
13 -x,-y,-z
14 -1/2+x,y,-1/2-z
15 x,-1/2-y,-1/2+z
16 -1/2-x,-1/2+y,z
17 -z,-x,-y
18 -1/2-z,-1/2+x,y
19 -1/2+z,x,-1/2-y
20 z,-1/2-x,-1/2+y
21 -y,-z,-x
22 y,-1/2-z,-1/2+x
23 -1/2-y,-1/2+z,x
24 -1/2+y,z,-1/2-x
_cell_length_a 20.0332(8)
_cell_length_b 20.0332(8)
_cell_length_c 20.0332(8)
_cell_angle_alpha 90
_cell_angle_beta 90
_cell_angle_gamma 90
_cell_formula_units_Z 8
loop_
_atom_type_symbol
_atom_type_radius_bond
C 0.68
H 0.23
Cl 0.99
N 0.68
Zr 1.75
loop_
_atom_site_label
_atom_site_type_symbol
_atom_site_fract_x
_atom_site_fract_y
_atom_site_fract_z
Zr1 Zr 0.782057(12) 0.282057(12) 0.217943(12)
Cl1 Cl 0.70869(3) 0.20869(3) 0.29131(3)
N1 N 0.88167(11) 0.25934(11) 0.16818(11)
N2 N 0.86438(11) 0.23211(11) 0.27305(11)
N3 N 0.95623(12) 0.17887(12) 0.21551(12)
C1 C 0.90255(14) 0.22248(13) 0.21929(14)
C2 C 0.95112(18) 0.10993(15) 0.23553(18)
H1 H 0.97980 0.10200 0.27310
H2 H 0.96430 0.08170 0.19910
H3 H 0.90580 0.10020 0.24770
C3 C 1.01887(16) 0.19866(18) 0.18618(19)
H4 H 1.02430 0.17690 0.14380
H5 H 1.05480 0.18610 0.21530
H6 H 1.01930 0.24620 0.17990
C4 C 0.89842(15) 0.24296(16) 0.09918(14)
H7 H 0.85750 0.23630 0.07420
H8 H 0.92310 0.20130 0.09840
C5 C 0.93943(17) 0.29648(17) 0.06538(16)
H9 H 0.91520 0.33780 0.06570
H10 H 0.94830 0.28360 0.02010
H11 H 0.98080 0.30210 0.08880
C6 C 0.88372(14) 0.22268(15) 0.34407(15)
C7 C 0.84812(16) 0.27777(15) 0.38326(15)
H12 H 0.86320 0.32060 0.36790
H13 H 0.85800 0.27310 0.42990
H14 H 0.80080 0.27420 0.37650
C8 C 0.95912(15) 0.23136(17) 0.35546(16)
H15 H 0.98270 0.19550 0.33420
H16 H 0.96830 0.23090 0.40250
H17 H 0.97340 0.27310 0.33680
C9 C 0.86008(16) 0.15518(16) 0.37140(16)
H18 H 0.81300 0.15040 0.36370
H19 H 0.86890 0.15300 0.41850
H20 H 0.88350 0.11980 0.34910
C10 C 0.9489(2) 0.0077(3) 0.4522(2)
H21 H 0.93710 -0.00540 0.40710
H22 H 0.91280 0.03530 0.46900
C11 C 0.9700(12) 0.4387(6) 0.4958(18)
H23 H 0.93670 0.40690 0.48080
H24 H 1.00150 0.41610 0.52480
N1G N 0.83182(11) 0.38167(11) 0.24066(11)
N2G N 0.72695(11) 0.36438(11) 0.26789(11)
N3G N 0.78449(12) 0.45623(12) 0.32113(12)
C1G C 0.78071(14) 0.40255(13) 0.27752(14)
C2G C 0.76447(18) 0.45112(15) 0.39007(18)
H1G H 0.72690 0.47980 0.39800
H2G H 0.80090 0.46430 0.41830
H3G H 0.75230 0.40580 0.39980
C3G C 0.81382(16) 0.51887(18) 0.30134(19)
H4G H 0.85620 0.52430 0.32310
H5G H 0.78470 0.55480 0.31390
H6G H 0.82010 0.51930 0.25380
C4G C 0.90082(15) 0.39842(16) 0.25704(14)
H7G H 0.92580 0.35750 0.26370
H8G H 0.90160 0.42310 0.29870
C5G C 0.93462(17) 0.43943(17) 0.20352(16)
H9G H 0.93430 0.41520 0.16220
H10G H 0.97990 0.44830 0.21640
H11G H 0.91120 0.48080 0.19790
C6G C 0.65593(14) 0.38372(15) 0.27732(15)
C7G C 0.61674(16) 0.34812(15) 0.22223(15)
H12G H 0.63210 0.36320 0.17940
H13G H 0.57010 0.35800 0.22690
H14G H 0.62350 0.30080 0.22580
C8G C 0.64454(15) 0.45912(17) 0.26864(16)
H15G H 0.66580 0.48270 0.30450
H16G H 0.59750 0.46830 0.26910
H17G H 0.66320 0.47340 0.22690
C9G C 0.62860(16) 0.36008(16) 0.34482(16)
H18G H 0.63630 0.31300 0.34960
H19G H 0.58150 0.36890 0.34700
H20G H 0.65090 0.38350 0.38020
N1J N 0.75934(11) 0.33182(11) 0.11833(11)
N2J N 0.73211(11) 0.22695(11) 0.13562(11)
N3J N 0.67887(12) 0.28449(12) 0.04377(12)
C1J C 0.72248(14) 0.28071(13) 0.09745(14)
C2J C 0.60993(18) 0.26447(15) 0.04888(18)
H1J H 0.60200 0.22690 0.02020
H2J H 0.58170 0.30090 0.03570
H3J H 0.60020 0.25230 0.09420
C3J C 0.69866(16) 0.31382(18) -0.01887(19)
H4J H 0.67690 0.35620 -0.02430
H5J H 0.68610 0.28470 -0.05480
H6J H 0.74620 0.32010 -0.01930
C4J C 0.74296(15) 0.40082(16) 0.10158(14)
H7J H 0.73630 0.42580 0.14250
H8J H 0.70130 0.40160 0.07690
C5J C 0.79648(17) 0.43462(17) 0.06057(16)
H9J H 0.83780 0.43430 0.08480
H10J H 0.78360 0.47990 0.05170
H11J H 0.80210 0.41120 0.01920
C6J C 0.72268(14) 0.15593(15) 0.11628(15)
C7J C 0.77777(16) 0.11674(15) 0.15188(15)
H12J H 0.82060 0.13210 0.13680
H13J H 0.77310 0.07010 0.14200
H14J H 0.77420 0.12350 0.19920
C8J C 0.73136(15) 0.14454(17) 0.04088(16)
H15J H 0.69550 0.16580 0.01730
H16J H 0.73090 0.09750 0.03170
H17J H 0.77310 0.16320 0.02660
C9J C 0.65518(16) 0.12860(16) 0.13992(16)
H18J H 0.65040 0.13630 0.18700
H19J H 0.65300 0.08150 0.13110
H20J H 0.61980 0.15090 0.11650
C10R C 0.9522(2) -0.0511(3) 0.4923(2)
H21R H 0.90710 -0.06290 0.50540
H22R H 0.96900 -0.08720 0.46470
C10U C 1.0077(2) 0.0478(3) 0.4489(2)
H21U H 0.99460 0.09290 0.43710
H22U H 1.03530 0.03100 0.41280
C10F C 1.0478(2) 0.0511(3) 0.5077(2)
H21F H 1.09290 0.06290 0.49460
H22F H 1.03100 0.08720 0.53530
C10I C 0.9923(2) -0.0478(3) 0.5511(2)
H21I H 1.00540 -0.09290 0.56290
H22I H 0.96470 -0.03100 0.58720
C10L C 1.0511(2) -0.0077(3) 0.5478(2)
H21L H 1.06290 0.00540 0.59290
H22L H 1.08720 -0.03530 0.53100
C11Q C 1.0042(12) 0.4700(6) 0.4387(18)
H23Q H 1.01920 0.43670 0.40690
H24Q H 0.97520 0.50150 0.41610
C11W C 0.9387(12) 0.4958(6) 0.5300(18)
H23W H 0.90690 0.48080 0.56330
H24W H 0.91610 0.52480 0.49850
C11E C 0.9958(12) 0.5300(6) 0.5613(18)
H23E H 0.98080 0.56330 0.59310
H24E H 1.02480 0.49850 0.58390
C11K C 1.0613(12) 0.5042(6) 0.4700(18)
H23K H 1.09310 0.51920 0.43670
H24K H 1.08390 0.47520 0.50150
C11L C 1.0300(12) 0.5613(6) 0.5042(18)
H23L H 1.06330 0.59310 0.51920
H24L H 0.99850 0.58390 0.47520
#END

data_CSD_CIF_QULWEA
_audit_creation_date 2010-07-26
_audit_creation_method CSD-ConQuest-V1
_database_code_CSD QULWEA
_database_code_depnum_ccdc_archive 'CCDC 735546'
_chemical_formula_sum 'C9 H27 Cl1 Si4'
_chemical_formula_moiety
;
C9 H27 Cl1 Si4
;
_journal_coden_Cambridge 222
_journal_year 2009
_journal_page_first 9304
_journal_name_full 'Dalton Trans. '
loop_
_publ_author_name
"R.Kuzora"
"A.Schulz"
"A.Villinger"
"R.Wustrack"
_chemical_name_systematic
;
tris(trimethylsilyl)chlorosilane
;
_cell_volume   3700.141
_exptl_crystal_colour 'colorless'
_exptl_crystal_density_diffrn 1.016
_exptl_crystal_description 'block'
_diffrn_ambient_temperature 173
#These two values have been output from a single CSD field.
_refine_ls_R_factor_gt 0.0349
_refine_ls_wR_factor_gt 0.0349
_symmetry_cell_setting cubic
_symmetry_space_group_name_H-M 'P a -3'
_symmetry_Int_Tables_number 205
loop_
_symmetry_equiv_pos_site_id
_symmetry_equiv_pos_as_xyz
1 x,y,z
2 1/2-x,-y,1/2+z
3 -x,1/2+y,1/2-z
4 1/2+x,1/2-y,-z
5 z,x,y
6 1/2+z,1/2-x,-y
7 1/2-z,-x,1/2+y
8 -z,1/2+x,1/2-y
9 y,z,x
10 -y,1/2+z,1/2-x
11 1/2+y,1/2-z,-x
12 1/2-y,-z,1/2+x
13 -x,-y,-z
14 -1/2+x,y,-1/2-z
15 x,-1/2-y,-1/2+z
16 -1/2-x,-1/2+y,z
17 -z,-x,-y
18 -1/2-z,-1/2+x,y
19 -1/2+z,x,-1/2-y
20 z,-1/2-x,-1/2+y
21 -y,-z,-x
22 y,-1/2-z,-1/2+x
23 -1/2-y,-1/2+z,x
24 -1/2+y,z,-1/2-x
_cell_length_a 15.467(3)
_cell_length_b 15.467(3)
_cell_length_c 15.467(3)
_cell_angle_alpha 90
_cell_angle_beta 90
_cell_angle_gamma 90
_cell_formula_units_Z 8
loop_
_atom_type_symbol
_atom_type_radius_bond
C 0.68
H 0.23
Cl 0.99
Si 1.20
loop_
_atom_site_label
_atom_site_type_symbol
_atom_site_fract_x
_atom_site_fract_y
_atom_site_fract_z
Si1 Si 0.15807(2) 0.15807(2) 0.15807(2)
Cl1 Cl 0.23739(2) 0.23739(2) 0.23739(2)
Si2 Si 0.19486(3) 0.19361(3) 0.01566(3)
C1 C 0.13038(13) 0.12538(14) -0.06013(11)
H1 H 0.06860 0.13540 -0.05020
H2 H 0.14370 0.06430 -0.05010
H3 H 0.14490 0.14060 -0.11990
C2 C 0.1731(2) 0.30993(13) -0.00578(14)
H4 H 0.19450 0.32510 -0.06340
H5 H 0.20260 0.34530 0.03770
H6 H 0.11070 0.32060 -0.00290
C3 C 0.31258(15) 0.1762(2) -0.00277(13)
H7 H 0.32600 0.11460 0.00300
H8 H 0.34570 0.20920 0.04000
H9 H 0.32800 0.19580 -0.06100
Si2D Si 0.01566(3) 0.19486(3) 0.19361(3)
Si2H Si 0.19361(3) 0.01566(3) 0.19486(3)
C1D C -0.06013(13) 0.13038(14) 0.12538(11)
C1H C 0.12538(13) -0.06013(14) 0.13038(11)
H1D H -0.05020 0.06860 0.13540
H1H H 0.13540 -0.05020 0.06860
H2D H -0.05010 0.14370 0.06430
H2H H 0.06430 -0.05010 0.14370
H3D H -0.11990 0.14490 0.14060
H3H H 0.14060 -0.11990 0.14490
C2D C -0.00578(20) 0.17310(13) 0.30993(14)
C2H C 0.30993(20) -0.00578(13) 0.17310(14)
H4D H -0.06340 0.19450 0.32510
H4H H 0.32510 -0.06340 0.19450
H5D H 0.03770 0.20260 0.34530
H5H H 0.34530 0.03770 0.20260
H6D H -0.00290 0.11070 0.32060
H6H H 0.32060 -0.00290 0.11070
C3D C -0.00277(15) 0.31258(20) 0.17620(13)
C3H C 0.17620(15) -0.00277(20) 0.31258(13)
H7D H 0.00300 0.32600 0.11460
H7H H 0.11460 0.00300 0.32600
H8D H 0.04000 0.34570 0.20920
H8H H 0.20920 0.04000 0.34570
H9D H -0.06100 0.32800 0.19580
H9H H 0.19580 -0.06100 0.32800
#END

data_CSD_CIF_RACVUM
_audit_creation_date 1997-07-21
_audit_creation_method CSD-ConQuest-V1
_database_code_CSD RACVUM
_database_code_depnum_ccdc_archive 'CCDC 106436; CCDC 405518'
_database_code_depnum_ccdc_fiz 'CSD 405518'
_chemical_formula_sum 'C15 H39 Cl1 N4 Si3 W1'
_chemical_formula_moiety
;
C15 H39 Cl1 N4 Si3 W1
;
_journal_coden_Cambridge 179
_journal_volume 35
_journal_year 1996
_journal_page_first 2492
_journal_name_full 'Angew.Chem.,Int.Ed. '
loop_
_publ_author_name
"M.Scheer"
"J.Muller"
"M.Haser"
_chemical_name_systematic
;
Chloro-(tris(2-(trimethylsilylamino)ethyl)amine-N,N',N'',N''')-tungsten
;
_cell_volume   5106.219
_exptl_crystal_colour 'deep yellow'
_exptl_crystal_density_diffrn 1.507
_exptl_special_details
;
space group published as Pa-3

;
_diffrn_ambient_temperature 200
#These two values have been output from a single CSD field.
_refine_ls_R_factor_gt 0.034
_refine_ls_wR_factor_gt 0.034
_symmetry_cell_setting cubic
_symmetry_space_group_name_H-M 'P a 3'
_symmetry_Int_Tables_number 205
loop_
_symmetry_equiv_pos_site_id
_symmetry_equiv_pos_as_xyz
1 x,y,z
2 1/2-x,-y,1/2+z
3 1/2+x,1/2-y,-z
4 z,x,y
5 -x,1/2+y,1/2-z
6 1/2-z,-x,1/2+y
7 1/2+z,1/2-x,-y
8 -z,1/2+x,1/2-y
9 y,z,x
10 1/2+y,1/2-z,-x
11 -y,1/2+z,1/2-x
12 1/2-y,-z,1/2+x
13 -x,-y,-z
14 -1/2+x,y,-1/2-z
15 -1/2-x,-1/2+y,z
16 -z,-x,-y
17 x,-1/2-y,-1/2+z
18 -1/2+z,x,-1/2-y
19 -1/2-z,-1/2+x,y
20 z,-1/2-x,-1/2+y
21 -y,-z,-x
22 -1/2-y,-1/2+z,x
23 y,-1/2-z,-1/2+x
24 -1/2+y,z,-1/2-x
_cell_length_a 17.220(2)
_cell_length_b 17.220(2)
_cell_length_c 17.220(2)
_cell_angle_alpha 90
_cell_angle_beta 90
_cell_angle_gamma 90
_cell_formula_units_Z 8
loop_
_atom_type_symbol
_atom_type_radius_bond
C 0.68
H 0.23
Cl 0.99
N 0.68
Si 1.20
W 1.37
loop_
_atom_site_label
_atom_site_type_symbol
_atom_site_fract_x
_atom_site_fract_y
_atom_site_fract_z
W1 W 0.795649(9) 0.295649(9) 0.204351(9)
Cl1 Cl 0.71521(7) 0.21521(7) 0.28479(7)
Si1 Si 0.62888(8) 0.27354(9) 0.10515(8)
N1 N 0.7243(2) 0.3082(2) 0.1147(2)
N2 N 0.8688(2) 0.3688(2) 0.1312(2)
C1 C 0.8383(3) 0.3640(3) 0.0504(3)
H1 H 0.8571(3) 0.3171(3) 0.0255(3)
H2 H 0.8561(3) 0.4083(3) 0.0205(3)
C2 C 0.7506(3) 0.3631(3) 0.0534(3)
H3 H 0.7315(3) 0.4148(3) 0.0647(3)
H4 H 0.7300(3) 0.3471(3) 0.0035(3)
C3 C 0.6260(3) 0.1652(4) 0.1074(4)
H5 H 0.5751(8) 0.1476(4) 0.0930(26)
H6 H 0.6379(26) 0.1473(4) 0.1589(7)
H7 H 0.6636(19) 0.1448(4) 0.0716(20)
C4 C 0.5890(4) 0.3049(5) 0.0087(4)
H8 H 0.5387(16) 0.2821(29) 0.0011(16)
H9 H 0.6233(19) 0.2881(31) -0.0319(5)
H10 H 0.5847(34) 0.3604(5) 0.0076(14)
C5 C 0.5644(4) 0.3139(4) 0.1824(4)
H11 H 0.5126(7) 0.2946(22) 0.1753(17)
H12 H 0.5641(22) 0.3695(4) 0.1792(18)
H13 H 0.5833(16) 0.2982(23) 0.2325(4)
N1G N 0.8853(2) 0.2243(2) 0.1918(2)
Si1G Si 0.89485(8) 0.12888(9) 0.22646(8)
C3G C 0.8926(3) 0.1260(4) 0.3348(4)
H5G H 0.9070(8) 0.0751(4) 0.3524(26)
H6G H 0.8411(26) 0.1379(4) 0.3527(7)
H7G H 0.9284(19) 0.1636(4) 0.3552(20)
C4G C 0.9913(4) 0.0890(5) 0.1951(4)
H8G H 0.9989(16) 0.0387(29) 0.2179(16)
H9G H 1.0319(19) 0.1233(31) 0.2119(5)
H10G H 0.9924(34) 0.0847(5) 0.1396(14)
C5G C 0.8176(4) 0.0644(4) 0.1861(4)
H11G H 0.8247(7) 0.0126(22) 0.2054(17)
H12G H 0.8208(22) 0.0641(4) 0.1305(18)
H13G H 0.7675(16) 0.0833(23) 0.2018(4)
C2G C 0.9466(3) 0.2506(3) 0.1369(3)
C1G C 0.9496(3) 0.3383(3) 0.1360(3)
C1I C 0.8640(3) 0.4496(3) 0.1617(3)
H1I H 0.8171(3) 0.4745(3) 0.1429(3)
H2I H 0.9083(3) 0.4795(3) 0.1439(3)
C2I C 0.8631(3) 0.4466(3) 0.2494(3)
N1I N 0.8082(2) 0.3853(2) 0.2757(2)
Si1I Si 0.77354(8) 0.39485(9) 0.37112(8)
C3I C 0.6652(3) 0.3926(4) 0.3740(4)
H5I H 0.6476(8) 0.4070(4) 0.4249(26)
H6I H 0.6473(26) 0.3411(4) 0.3621(7)
H7I H 0.6448(19) 0.4284(4) 0.3364(20)
C4I C 0.8049(4) 0.4913(5) 0.4110(4)
H8I H 0.7821(16) 0.4989(29) 0.4613(16)
H9I H 0.7881(19) 0.5319(31) 0.3767(5)
H10I H 0.8604(34) 0.4924(5) 0.4153(14)
C5I C 0.8139(4) 0.3176(4) 0.4356(4)
H11I H 0.7946(7) 0.3247(22) 0.4874(17)
H12I H 0.8695(22) 0.3208(4) 0.4359(18)
H13I H 0.7982(16) 0.2675(23) 0.4167(4)
H3I H 0.9148(3) 0.4353(3) 0.2685(3)
H4I H 0.8471(3) 0.4965(3) 0.2700(3)
H1G H 0.9745(3) 0.3571(3) 0.1829(3)
H2G H 0.9795(3) 0.3561(3) 0.0917(3)
H3G H 0.9353(3) 0.2315(3) 0.0852(3)
H4G H 0.9965(3) 0.2300(3) 0.1529(3)
#END

data_CSD_CIF_RACWAT
_audit_creation_date 1997-07-21
_audit_creation_method CSD-ConQuest-V1
_database_code_CSD RACWAT
_database_code_depnum_ccdc_archive 'CCDC 106437; CCDC 405519'
_database_code_depnum_ccdc_fiz 'CSD 405519'
_chemical_formula_sum 'C15 H39 As1 N4 Si3 W1'
_chemical_formula_moiety
;
C15 H39 As1 N4 Si3 W1
;
_journal_coden_Cambridge 179
_journal_volume 35
_journal_year 1996
_journal_page_first 2492
_journal_name_full 'Angew.Chem.,Int.Ed. '
loop_
_publ_author_name
"M.Scheer"
"J.Muller"
"M.Haser"
_chemical_name_systematic
;
Arseno-(tris(2-(trimethylsilylamino)ethyl)amine-N,N',N'',N''')-tungsten
;
_cell_volume   5137.418
_exptl_crystal_colour 'yellow-orange'
_exptl_crystal_density_diffrn 1.599
_exptl_special_details
;
space group published as Pa-3

;
_diffrn_ambient_temperature 200
#These two values have been output from a single CSD field.
_refine_ls_R_factor_gt 0.0402
_refine_ls_wR_factor_gt 0.0402
_symmetry_cell_setting cubic
_symmetry_space_group_name_H-M 'P a 3'
_symmetry_Int_Tables_number 205
loop_
_symmetry_equiv_pos_site_id
_symmetry_equiv_pos_as_xyz
1 x,y,z
2 1/2-x,-y,1/2+z
3 1/2+x,1/2-y,-z
4 z,x,y
5 -x,1/2+y,1/2-z
6 1/2-z,-x,1/2+y
7 1/2+z,1/2-x,-y
8 -z,1/2+x,1/2-y
9 y,z,x
10 1/2+y,1/2-z,-x
11 -y,1/2+z,1/2-x
12 1/2-y,-z,1/2+x
13 -x,-y,-z
14 -1/2+x,y,-1/2-z
15 -1/2-x,-1/2+y,z
16 -z,-x,-y
17 x,-1/2-y,-1/2+z
18 -1/2+z,x,-1/2-y
19 -1/2-z,-1/2+x,y
20 z,-1/2-x,-1/2+y
21 -y,-z,-x
22 -1/2-y,-1/2+z,x
23 y,-1/2-z,-1/2+x
24 -1/2+y,z,-1/2-x
_cell_length_a 17.255(2)
_cell_length_b 17.255(2)
_cell_length_c 17.255(2)
_cell_angle_alpha 90
_cell_angle_beta 90
_cell_angle_gamma 90
_cell_formula_units_Z 8
loop_
_atom_type_symbol
_atom_type_radius_bond
C 0.68
H 0.23
As 1.21
N 0.68
Si 1.20
W 1.37
loop_
_atom_site_label
_atom_site_type_symbol
_atom_site_fract_x
_atom_site_fract_y
_atom_site_fract_z
W1 W 0.793829(10) 0.293829(10) 0.206171(10)
As1 As 0.71720(4) 0.21720(4) 0.28280(4)
Si1 Si 0.89453(8) 0.12981(8) 0.22118(9)
N1 N 0.8720(2) 0.3720(2) 0.1280(2)
N2 N 0.8850(2) 0.2258(2) 0.1873(2)
C1 C 0.9510(3) 0.3400(3) 0.1331(3)
H1 H 0.9759(3) 0.3580(3) 0.1802(3)
H2 H 0.9815(3) 0.3572(3) 0.0892(3)
C2 C 0.9460(3) 0.2522(3) 0.1335(3)
H3 H 0.9346(3) 0.2338(3) 0.0816(3)
H4 H 0.9955(3) 0.2306(3) 0.1492(3)
C3 C 0.8972(4) 0.1241(4) 0.3295(4)
H5 H 0.9120(28) 0.0728(9) 0.3450(4)
H6 H 0.8468(8) 0.1358(28) 0.3499(4)
H7 H 0.9341(21) 0.1608(20) 0.3491(4)
C4 C 0.9884(4) 0.0890(4) 0.1858(5)
H8 H 0.9965(17) 0.0388(15) 0.2084(28)
H9 H 1.0301(5) 0.1229(18) 0.2005(30)
H10 H 0.9869(13) 0.0844(32) 0.1304(6)
C5 C 0.8181(4) 0.0644(3) 0.1811(4)
H11 H 0.8288(14) 0.0119(5) 0.1962(21)
H12 H 0.8179(17) 0.0680(19) 0.1255(4)
H13 H 0.7684(5) 0.0796(16) 0.2008(20)
N2G N 0.8127(2) 0.3850(2) 0.2742(2)
Si1G Si 0.77882(8) 0.39453(8) 0.37019(9)
C3G C 0.6705(4) 0.3972(4) 0.3759(4)
H5G H 0.6550(28) 0.4120(9) 0.4272(4)
H6G H 0.6501(8) 0.3468(28) 0.3642(4)
H7G H 0.6509(21) 0.4341(20) 0.3392(4)
C4G C 0.8142(4) 0.4884(4) 0.4110(5)
H8G H 0.7916(17) 0.4965(15) 0.4612(28)
H9G H 0.7995(5) 0.5301(18) 0.3771(30)
H10G H 0.8696(13) 0.4869(32) 0.4156(6)
C5G C 0.8189(4) 0.3181(3) 0.4356(4)
H11G H 0.8038(14) 0.3288(5) 0.4881(21)
H12G H 0.8745(17) 0.3179(19) 0.4320(4)
H13G H 0.7992(5) 0.2684(16) 0.4204(20)
C2G C 0.8665(3) 0.4460(3) 0.2478(3)
C1G C 0.8669(3) 0.4510(3) 0.1600(3)
C1I C 0.8400(3) 0.3669(3) 0.0490(3)
H1I H 0.8580(3) 0.3198(3) 0.0241(3)
H2I H 0.8572(3) 0.4108(3) 0.0185(3)
C2I C 0.7522(3) 0.3665(3) 0.0540(3)
N2I N 0.7258(2) 0.3127(2) 0.1150(2)
Si1I Si 0.62981(8) 0.27882(8) 0.10547(9)
C3I C 0.6241(4) 0.1705(4) 0.1028(4)
H5I H 0.5728(28) 0.1550(9) 0.0880(4)
H6I H 0.6358(8) 0.1501(28) 0.1532(4)
H7I H 0.6608(21) 0.1509(20) 0.0659(4)
C4I C 0.5890(4) 0.3142(4) 0.0116(5)
H8I H 0.5388(17) 0.2916(15) 0.0035(28)
H9I H 0.6229(5) 0.2995(18) -0.0301(30)
H10I H 0.5844(13) 0.3696(32) 0.0131(6)
C5I C 0.5644(4) 0.3189(3) 0.1819(4)
H11I H 0.5119(14) 0.3038(5) 0.1712(21)
H12I H 0.5680(17) 0.3745(19) 0.1821(4)
H13I H 0.5796(5) 0.2992(16) 0.2316(20)
H3I H 0.7338(3) 0.4184(3) 0.0654(3)
H4I H 0.7306(3) 0.3508(3) 0.0045(3)
H1G H 0.8198(3) 0.4759(3) 0.1420(3)
H2G H 0.9108(3) 0.4815(3) 0.1428(3)
H3G H 0.9184(3) 0.4346(3) 0.2662(3)
H4G H 0.8508(3) 0.4955(3) 0.2694(3)
#END

data_CSD_CIF_RAJPEX
_audit_creation_date 2001-11-02
_audit_creation_method CSD-ConQuest-V1
_database_code_CSD RAJPEX
_database_code_depnum_ccdc_archive 'CCDC 154237'
_chemical_formula_sum 'C27 H63 As1 Si3'
_chemical_formula_moiety
;
C27 H63 As1 Si3
;
_journal_coden_Cambridge 29
_journal_volume 627
_journal_year 2001
_journal_page_first 1414
_journal_name_full 'Z.Anorg.Allg.Chem. '
loop_
_publ_author_name
"C.von Hanisch"
_chemical_name_systematic
;
tris(Tri-isopropylsilyl)-arsine
;
_chemical_melting_point 528.15
_cell_volume   6577.042
_exptl_crystal_colour 'colorless'
_exptl_crystal_density_diffrn 1.105
_exptl_special_details
;
Isotypic with the phosphorus and antimony analogues

;
_diffrn_ambient_temperature 200
#These two values have been output from a single CSD field.
_refine_ls_R_factor_gt 0.0291
_refine_ls_wR_factor_gt 0.0291
_symmetry_cell_setting cubic
_symmetry_space_group_name_H-M 'P a -3'
_symmetry_Int_Tables_number 205
loop_
_symmetry_equiv_pos_site_id
_symmetry_equiv_pos_as_xyz
1 x,y,z
2 y,z,x
3 z,x,y
4 1/2+x,y,1/2-z
5 1/2-x,1/2+y,z
6 x,1/2-y,1/2+z
7 1/2+y,z,1/2-x
8 1/2-y,1/2+z,x
9 y,1/2-z,1/2+x
10 z,1/2-x,1/2+y
11 1/2+z,x,1/2-y
12 1/2-z,1/2+x,y
13 -x,-y,-z
14 -y,-z,-x
15 -z,-x,-y
16 -1/2-x,-y,-1/2+z
17 -1/2+x,-1/2-y,-z
18 -x,-1/2+y,-1/2-z
19 -1/2-y,-z,-1/2+x
20 -1/2+y,-1/2-z,-x
21 -y,-1/2+z,-1/2-x
22 -z,-1/2+x,-1/2-y
23 -1/2-z,-x,-1/2+y
24 -1/2+z,-1/2-x,-y
_cell_length_a 18.736(2)
_cell_length_b 18.736(2)
_cell_length_c 18.736(2)
_cell_angle_alpha 90
_cell_angle_beta 90
_cell_angle_gamma 90
_cell_formula_units_Z 8
loop_
_atom_type_symbol
_atom_type_radius_bond
C 0.68
H 0.23
As 1.21
Si 1.20
loop_
_atom_site_label
_atom_site_type_symbol
_atom_site_fract_x
_atom_site_fract_y
_atom_site_fract_z
As1 As 0.150255(11) 0.150255(11) 0.150255(11)
Si1 Si 0.05539(3) 0.23005(3) 0.12438(3)
C1 C -0.00432(11) 0.23187(11) 0.20697(11)
H1 H -0.00920 0.18230 0.22300
C2 C 0.02699(16) 0.27340(14) 0.26912(12)
H2 H -0.00560 0.27220 0.30860
H3 H 0.03480 0.32200 0.25500
H4 H 0.07150 0.25230 0.28310
C3 C 0.09937(11) 0.31997(10) 0.10654(11)
H5 H 0.12610 0.31440 0.06190
C4 C -0.08025(13) 0.25920(14) 0.19171(15)
H6 H -0.10760 0.25890 0.23510
H7 H -0.10270 0.22880 0.15710
H8 H -0.07780 0.30700 0.17340
C5 C 0.15350(14) 0.34533(12) 0.16234(14)
H9 H 0.17240 0.39090 0.14840
H10 H 0.19170 0.31130 0.16580
H11 H 0.13030 0.34970 0.20780
C6 C 0.04442(14) 0.37966(12) 0.09290(14)
H12 H 0.06890 0.42380 0.08420
H13 H 0.01420 0.38470 0.13390
H14 H 0.01590 0.36760 0.05210
C7 C -0.04179(13) 0.13802(12) 0.04775(13)
H15 H -0.07220 0.13270 0.00680
H16 H -0.06970 0.13330 0.09050
H17 H -0.00560 0.10180 0.04700
C8 C -0.00668(12) 0.21170(11) 0.04613(11)
H18 H -0.04600 0.24580 0.05140
C9 C 0.02395(14) 0.22575(15) -0.02771(12)
H19 H -0.01140 0.21490 -0.06320
H20 H 0.06510 0.19620 -0.03500
H21 H 0.03740 0.27500 -0.03150
Si1A Si 0.23005(3) 0.12438(3) 0.05539(3)
C1A C 0.23187(11) 0.20697(11) -0.00432(11)
H1A H 0.18230 0.22300 -0.00920
C2A C 0.27340(16) 0.26912(14) 0.02699(12)
H2A H 0.27220 0.30860 -0.00560
H3A H 0.32200 0.25500 0.03480
H4A H 0.25230 0.28310 0.07150
C4A C 0.25920(13) 0.19171(14) -0.08025(15)
H6A H 0.25890 0.23510 -0.10760
H7A H 0.22880 0.15710 -0.10270
H8A H 0.30700 0.17340 -0.07780
C3A C 0.31997(11) 0.10654(10) 0.09937(11)
H5A H 0.31440 0.06190 0.12610
C5A C 0.34533(14) 0.16234(12) 0.15350(14)
H9A H 0.39090 0.14840 0.17240
H10A H 0.31130 0.16580 0.19170
H11A H 0.34970 0.20780 0.13030
C6A C 0.37966(14) 0.09290(12) 0.04442(14)
H12A H 0.42380 0.08420 0.06890
H13A H 0.38470 0.13390 0.01420
H14A H 0.36760 0.05210 0.01590
C8A C 0.21170(12) 0.04613(11) -0.00668(11)
C7A C 0.13802(13) 0.04775(12) -0.04179(13)
H15A H 0.13270 0.00680 -0.07220
H16A H 0.13330 0.09050 -0.06970
H17A H 0.10180 0.04700 -0.00560
H18A H 0.24580 0.05140 -0.04600
C9A C 0.22575(14) -0.02771(15) 0.02395(12)
H19A H 0.21490 -0.06320 -0.01140
H20A H 0.19620 -0.03500 0.06510
H21A H 0.27500 -0.03150 0.03740
Si1B Si 0.12438(3) 0.05539(3) 0.23005(3)
C1B C 0.20697(11) -0.00432(11) 0.23187(11)
H1B H 0.22300 -0.00920 0.18230
C2B C 0.26912(16) 0.02699(14) 0.27340(12)
H2B H 0.30860 -0.00560 0.27220
H3B H 0.25500 0.03480 0.32200
H4B H 0.28310 0.07150 0.25230
C4B C 0.19171(13) -0.08025(14) 0.25920(15)
H6B H 0.23510 -0.10760 0.25890
H7B H 0.15710 -0.10270 0.22880
H8B H 0.17340 -0.07780 0.30700
C3B C 0.10654(11) 0.09937(10) 0.31997(11)
H5B H 0.06190 0.12610 0.31440
C5B C 0.16234(14) 0.15350(12) 0.34533(14)
H9B H 0.14840 0.17240 0.39090
H10B H 0.16580 0.19170 0.31130
H11B H 0.20780 0.13030 0.34970
C6B C 0.09290(14) 0.04442(12) 0.37966(14)
H12B H 0.08420 0.06890 0.42380
H13B H 0.13390 0.01420 0.38470
H14B H 0.05210 0.01590 0.36760
C8B C 0.04613(12) -0.00668(11) 0.21170(11)
C7B C 0.04775(13) -0.04179(12) 0.13802(13)
H15B H 0.00680 -0.07220 0.13270
H16B H 0.09050 -0.06970 0.13330
H17B H 0.04700 -0.00560 0.10180
H18B H 0.05140 -0.04600 0.24580
C9B C -0.02771(14) 0.02395(15) 0.22575(12)
H19B H -0.06320 -0.01140 0.21490
H20B H -0.03500 0.06510 0.19620
H21B H -0.03150 0.03740 0.27500
#END

data_CSD_CIF_RAJPIB
_audit_creation_date 2001-11-02
_audit_creation_method CSD-ConQuest-V1
_database_code_CSD RAJPIB
_database_code_depnum_ccdc_archive 'CCDC 154238'
_chemical_formula_sum 'C27 H63 Sb1 Si3'
_chemical_formula_moiety
;
C27 H63 Sb1 Si3
;
_journal_coden_Cambridge 29
_journal_volume 627
_journal_year 2001
_journal_page_first 1414
_journal_name_full 'Z.Anorg.Allg.Chem. '
loop_
_publ_author_name
"C.von Hanisch"
_chemical_name_systematic
;
tris(Tri-isopropylsilyl)-antimony
;
_chemical_melting_point 417.15
_cell_volume   6827.641
_exptl_crystal_colour 'colorless'
_exptl_crystal_density_diffrn 1.155
_exptl_special_details
;
Isotypic with the phosphorus and arsenic analogues

;
_diffrn_ambient_temperature 200
#These two values have been output from a single CSD field.
_refine_ls_R_factor_gt 0.022
_refine_ls_wR_factor_gt 0.022
_symmetry_cell_setting cubic
_symmetry_space_group_name_H-M 'P a -3'
_symmetry_Int_Tables_number 205
loop_
_symmetry_equiv_pos_site_id
_symmetry_equiv_pos_as_xyz
1 x,y,z
2 y,z,x
3 z,x,y
4 1/2+x,y,1/2-z
5 1/2-x,1/2+y,z
6 x,1/2-y,1/2+z
7 1/2+y,z,1/2-x
8 1/2-y,1/2+z,x
9 y,1/2-z,1/2+x
10 z,1/2-x,1/2+y
11 1/2+z,x,1/2-y
12 1/2-z,1/2+x,y
13 -x,-y,-z
14 -y,-z,-x
15 -z,-x,-y
16 -1/2-x,-y,-1/2+z
17 -1/2+x,-1/2-y,-z
18 -x,-1/2+y,-1/2-z
19 -1/2-y,-z,-1/2+x
20 -1/2+y,-1/2-z,-x
21 -y,-1/2+z,-1/2-x
22 -z,-1/2+x,-1/2-y
23 -1/2-z,-x,-1/2+y
24 -1/2+z,-1/2-x,-y
_cell_length_a 18.971(2)
_cell_length_b 18.971(2)
_cell_length_c 18.971(2)
_cell_angle_alpha 90
_cell_angle_beta 90
_cell_angle_gamma 90
_cell_formula_units_Z 8
loop_
_atom_type_symbol
_atom_type_radius_bond
C 0.68
H 0.23
Sb 1.46
Si 1.20
loop_
_atom_site_label
_atom_site_type_symbol
_atom_site_fract_x
_atom_site_fract_y
_atom_site_fract_z
Sb1 Sb 0.159096(6) 0.659096(6) 0.840904(6)
Si1 Si 0.13012(2) 0.55266(2) 0.76156(2)
C1 C 0.10787(11) 0.59400(11) 0.67249(9)
H1 H 0.06380 0.62010 0.67930
C2 C 0.09255(15) 0.53836(14) 0.61572(12)
H2 H 0.08160 0.56140 0.57200
H3 H 0.05320 0.51000 0.63010
H4 H 0.13320 0.50890 0.60960
C3 C 0.16119(13) 0.64715(14) 0.64300(13)
H5 H 0.14480 0.66450 0.59840
H6 H 0.20600 0.62450 0.63690
H7 H 0.16610 0.68580 0.67530
C4 C 0.21415(10) 0.49774(10) 0.76035(11)
H8 H 0.22820 0.49190 0.80970
C5 C 0.05462(10) 0.49117(10) 0.78468(11)
H9 H 0.05770 0.45190 0.75120
C6 C 0.06008(13) 0.45800(13) 0.85777(13)
H10 H 0.02030 0.42770 0.86560
H11 H 0.06060 0.49450 0.89280
H12 H 0.10270 0.43100 0.86090
C7 C -0.01889(10) 0.52308(13) 0.77443(14)
H13 H -0.05400 0.48890 0.78710
H14 H -0.02490 0.53630 0.72600
H15 H -0.02380 0.56400 0.80380
C8 C 0.27616(12) 0.53281(14) 0.72348(14)
H16 H 0.31630 0.50200 0.72500
H17 H 0.28730 0.57630 0.74690
H18 H 0.26400 0.54220 0.67530
C9 C 0.20383(13) 0.42319(12) 0.73099(14)
H19 H 0.24800 0.39850 0.73180
H20 H 0.18700 0.42600 0.68340
H21 H 0.17010 0.39840 0.75940
Si1S Si 0.05266(2) 0.73844(2) 0.86988(2)
C1S C 0.09400(11) 0.82751(11) 0.89213(9)
H1S H 0.12010 0.82070 0.93620
C2S C 0.03836(15) 0.88428(14) 0.90745(12)
H2S H 0.06140 0.92800 0.91840
H3S H 0.01000 0.86990 0.94680
H4S H 0.00890 0.89040 0.86680
C3S C 0.14715(13) 0.85700(14) 0.83881(13)
H5S H 0.16450 0.90160 0.85520
H6S H 0.12450 0.86310 0.79400
H7S H 0.18580 0.82470 0.83390
C4S C -0.00226(10) 0.73965(10) 0.78585(11)
H8S H -0.00810 0.69030 0.77180
C8S C 0.03281(12) 0.77652(14) 0.72384(14)
H16S H 0.00200 0.77500 0.68370
H17S H 0.07630 0.75310 0.71270
H18S H 0.04220 0.82470 0.73600
C9S C -0.07681(13) 0.76901(12) 0.79617(14)
H19S H -0.10150 0.76820 0.75200
H20S H -0.07400 0.81660 0.81300
H21S H -0.10160 0.74060 0.82990
C5S C -0.00883(10) 0.71532(10) 0.94538(11)
H9S H -0.04810 0.74880 0.94230
C6S C -0.04200(13) 0.64223(13) 0.93992(13)
H10S H -0.07230 0.63440 0.97970
H11S H -0.00550 0.60720 0.93940
H12S H -0.06900 0.63910 0.89730
C7S C 0.02308(10) 0.72557(13) 1.01889(14)
H13S H -0.01110 0.71290 1.05400
H14S H 0.03630 0.77400 1.02490
H15S H 0.06400 0.69620 1.02380
Si1U Si 0.23844(2) 0.63012(2) 0.94734(2)
C1U C 0.32751(11) 0.60787(11) 0.90600(9)
H1U H 0.32070 0.56380 0.87990
C2U C 0.38428(15) 0.59255(14) 0.96164(12)
H2U H 0.42800 0.58160 0.93860
H3U H 0.36990 0.55320 0.99000
H4U H 0.39040 0.63320 0.99110
C3U C 0.35700(13) 0.66119(14) 0.85285(13)
H5U H 0.40160 0.64480 0.83550
H6U H 0.36310 0.70600 0.87550
H7U H 0.32470 0.66610 0.81420
C4U C 0.23965(10) 0.71415(10) 1.00226(11)
H8U H 0.19030 0.72820 1.00810
C8U C 0.27652(12) 0.77616(14) 0.96719(14)
H16U H 0.27500 0.81630 0.99800
H17U H 0.25310 0.78730 0.92370
H18U H 0.32470 0.76400 0.95780
C9U C 0.26901(13) 0.70383(12) 1.07681(14)
H19U H 0.26820 0.74800 1.10150
H20U H 0.31660 0.68700 1.07400
H21U H 0.24060 0.67010 1.10160
C5U C 0.21532(10) 0.55462(10) 1.00883(11)
H9U H 0.24880 0.55770 1.04810
C6U C 0.14223(13) 0.56008(13) 1.04200(13)
H10U H 0.13440 0.52030 1.07230
H11U H 0.10720 0.56060 1.00550
H12U H 0.13910 0.60270 1.06900
C7U C 0.22557(10) 0.48111(13) 0.97692(14)
H13U H 0.21290 0.44600 1.01110
H14U H 0.27400 0.47510 0.96370
H15U H 0.19620 0.47620 0.93600
#END

data_CSD_CIF_RERMUX
_audit_creation_date 2007-02-05
_audit_creation_method CSD-ConQuest-V1
_database_code_CSD RERMUX
_database_code_depnum_ccdc_archive 'CCDC 298074'
_chemical_formula_sum 'C39 H45 Br3 O3'
_chemical_formula_moiety
;
C39 H39 Br3,3(H2 O1)
;
_journal_coden_Cambridge 35
_journal_volume 71
_journal_year 2006
_journal_page_first 7858
_journal_name_full 'J.Org.Chem. '
loop_
_publ_author_name
"Mao-Sen Yuan"
"Qi Fang"
"Zhi-Qiang Liu"
"Jian-Ping Guo"
"Hong-Yu Chen"
"Wen-Tao Yu"
"Gang Xue"
"Dian-Sheng Liu"
_chemical_name_systematic
;
2,7,12-Tribromo-5,5,10,10,15,15-hexaethyl-10,15-dihydro-5H-diindeno[1,2-a:1',2
'-c]fluorene trihydrate
;
_chemical_name_common
;
2,7,12-Tribromo-5,5,10,10,15,15-hexaethyltruxene trihydrate
;
_cell_volume   7682.690
_exptl_crystal_colour 'colorless'
_exptl_crystal_density_diffrn 1.386
_exptl_crystal_description 'block'
_diffrn_ambient_temperature 293
#These two values have been output from a single CSD field.
_refine_ls_R_factor_gt 0.0457
_refine_ls_wR_factor_gt 0.0457
_symmetry_cell_setting cubic
_symmetry_space_group_name_H-M 'P a -3'
_symmetry_Int_Tables_number 205
loop_
_symmetry_equiv_pos_site_id
_symmetry_equiv_pos_as_xyz
1 x,y,z
2 z,x,y
3 y,z,x
4 1/2-x,-y,1/2+z
5 -x,1/2+y,1/2-z
6 1/2+x,1/2-y,-z
7 1/2+z,1/2-x,-y
8 1/2-z,-x,1/2+y
9 -z,1/2+x,1/2-y
10 -y,1/2+z,1/2-x
11 1/2+y,1/2-z,-x
12 1/2-y,-z,1/2+x
13 -x,-y,-z
14 -z,-x,-y
15 -y,-z,-x
16 -1/2+x,y,-1/2-z
17 x,-1/2-y,-1/2+z
18 -1/2-x,-1/2+y,z
19 -1/2-z,-1/2+x,y
20 -1/2+z,x,-1/2-y
21 z,-1/2-x,-1/2+y
22 y,-1/2-z,-1/2+x
23 -1/2-y,-1/2+z,x
24 -1/2+y,z,-1/2-x
_cell_length_a 19.732(2)
_cell_length_b 19.732(2)
_cell_length_c 19.732(2)
_cell_angle_alpha 90
_cell_angle_beta 90
_cell_angle_gamma 90
_cell_formula_units_Z 8
loop_
_atom_type_symbol
_atom_type_radius_bond
C 0.68
H 0.23
Br 1.21
O 0.68
loop_
_atom_site_label
_atom_site_type_symbol
_atom_site_fract_x
_atom_site_fract_y
_atom_site_fract_z
O1 O 0.5188(6) 0.4814(6) 0.8989(5)
H1 H 0.55350 0.45310 0.89970
H2 H 0.51920 0.49740 0.94030
Br1 Br 0.18842(4) 0.53201(3) 0.99851(3)
C1 C 0.2380(2) 0.4056(2) 0.8395(2)
C2 C 0.2383(3) 0.4585(2) 0.8856(2)
H3 H 0.27110 0.49220 0.88330
C3 C 0.1885(3) 0.4600(2) 0.9351(2)
C4 C 0.1408(2) 0.4105(2) 0.9393(2)
H4 H 0.10800 0.41220 0.97310
C5 C 0.1411(2) 0.3576(2) 0.8932(2)
H5 H 0.10850 0.32360 0.89660
C6 C 0.1897(2) 0.3545(2) 0.8415(2)
C7 C 0.2035(2) 0.30772(19) 0.78500(19)
C8 C 0.26098(19) 0.33090(18) 0.7504(2)
C9 C 0.2879(2) 0.3953(2) 0.7827(2)
C10 C 0.3592(2) 0.3869(3) 0.8133(2)
H6 H 0.39110 0.37820 0.77690
H7 H 0.37230 0.42920 0.83470
C11 C 0.3648(3) 0.3304(4) 0.8651(3)
H8 H 0.41040 0.32820 0.88170
H9 H 0.35300 0.28810 0.84420
H10 H 0.33440 0.33930 0.90210
C12 C 0.2843(3) 0.4563(2) 0.7338(3)
H11 H 0.29530 0.49720 0.75870
H12 H 0.31830 0.45050 0.69880
C13 C 0.2155(3) 0.4652(3) 0.7003(3)
H13 H 0.21680 0.50380 0.67070
H14 H 0.18160 0.47210 0.73450
H15 H 0.20470 0.42540 0.67450
Br1F Br 0.49851(4) 0.31158(3) 0.46799(3)
Br1K Br -0.03201(4) 0.00149(3) 0.68842(3)
C1F C 0.3395(2) 0.2620(2) 0.5944(2)
C1K C 0.0944(2) 0.1605(2) 0.7380(2)
C2F C 0.3856(3) 0.2617(2) 0.5415(2)
C2K C 0.0415(3) 0.1144(2) 0.7383(2)
H3F H 0.38330 0.22890 0.50780
H3K H 0.00780 0.11670 0.77110
C3F C 0.4351(3) 0.3115(2) 0.5400(2)
C3K C 0.0400(3) 0.0649(2) 0.6885(2)
C4F C 0.4393(2) 0.3592(2) 0.5895(2)
C4K C 0.0895(2) 0.0607(2) 0.6408(2)
H4F H 0.47310 0.39200 0.58780
H4K H 0.08780 0.02690 0.60800
C5F C 0.3932(2) 0.3589(2) 0.6424(2)
C5K C 0.1424(2) 0.1068(2) 0.6411(2)
H5F H 0.39660 0.39150 0.67640
H5K H 0.17640 0.10340 0.60850
C6F C 0.3415(2) 0.3103(2) 0.6455(2)
C6K C 0.1455(2) 0.1585(2) 0.6897(2)
C7F C 0.2850(2) 0.29650(19) 0.69228(19)
C7K C 0.19228(20) 0.21500(19) 0.70350(19)
C8F C 0.25040(19) 0.23902(18) 0.6691(2)
C8K C 0.16910(19) 0.24960(18) 0.76098(20)
C9F C 0.2827(2) 0.2121(2) 0.6047(2)
C9K C 0.1047(2) 0.2173(2) 0.7879(2)
C10K C 0.1131(2) 0.1867(3) 0.8592(2)
C10F C 0.3133(2) 0.1408(3) 0.6131(2)
H6K H 0.12180 0.22310 0.89110
H6F H 0.27690 0.10890 0.62180
H7K H 0.07080 0.16530 0.87230
H7F H 0.33470 0.12770 0.57080
C11K C 0.1696(3) 0.1349(4) 0.8648(3)
C11F C 0.3651(3) 0.1352(4) 0.6696(3)
H8K H 0.17180 0.11830 0.91040
H8F H 0.38170 0.08960 0.67180
H9K H 0.21190 0.15580 0.85300
H9F H 0.34420 0.14700 0.71190
H10K H 0.16070 0.09790 0.83440
H10F H 0.40210 0.16560 0.66070
C12K C 0.0437(3) 0.2662(2) 0.7843(3)
C12F C 0.2338(3) 0.2157(2) 0.5437(3)
H11K H 0.00280 0.24130 0.79530
H11F H 0.25870 0.20470 0.50280
H12K H 0.04950 0.30120 0.81830
H12F H 0.19880 0.18170 0.54950
C13K C 0.0348(3) 0.2997(3) 0.7155(3)
C13F C 0.2003(3) 0.2845(3) 0.5348(3)
H13K H -0.00380 0.32930 0.71680
H13F H 0.17070 0.28320 0.49620
H14K H 0.02790 0.26550 0.68160
H14F H 0.23450 0.31840 0.52790
H15K H 0.07460 0.32550 0.70470
H15F H 0.17450 0.29530 0.57460
#END

data_CSD_CIF_RIQPEN
_audit_creation_date 2008-03-06
_audit_creation_method CSD-ConQuest-V1
_database_code_CSD RIQPEN
_database_code_depnum_ccdc_archive 'CCDC 650170'
_chemical_formula_sum 'C12 H30 I6 Se2 Zr1'
_chemical_formula_moiety
;
2(C6 H15 Se1 1+),I6 Zr1 2-
;
_journal_coden_Cambridge 222
_journal_year 2007
_journal_page_first 4769
_journal_name_full 'Dalton Trans. '
loop_
_publ_author_name
"S.D.Reid"
"A.L.Hector"
"W.Levason"
"G.Reid"
"B.J.Waller"
"M.Webster"
_chemical_name_systematic
;
bis(Triethylselenonium) hexakis(iodo)-zirconium(iv)
;
_cell_volume   2861.111
_exptl_crystal_colour 'yellow'
_exptl_crystal_density_diffrn 2.751
_exptl_crystal_description 'block'
_diffrn_ambient_temperature 120
#These two values have been output from a single CSD field.
_refine_ls_R_factor_gt 0.0435
_refine_ls_wR_factor_gt 0.0435
_symmetry_cell_setting cubic
_symmetry_space_group_name_H-M 'P a -3'
_symmetry_Int_Tables_number 205
loop_
_symmetry_equiv_pos_site_id
_symmetry_equiv_pos_as_xyz
1 x,y,z
2 z,x,y
3 y,z,x
4 1/2-x,-y,1/2+z
5 -x,1/2+y,1/2-z
6 1/2+x,1/2-y,-z
7 1/2+z,1/2-x,-y
8 1/2-z,-x,1/2+y
9 -z,1/2+x,1/2-y
10 -y,1/2+z,1/2-x
11 1/2+y,1/2-z,-x
12 1/2-y,-z,1/2+x
13 -x,-y,-z
14 -z,-x,-y
15 -y,-z,-x
16 -1/2+x,y,-1/2-z
17 x,-1/2-y,-1/2+z
18 -1/2-x,-1/2+y,z
19 -1/2-z,-1/2+x,y
20 -1/2+z,x,-1/2-y
21 z,-1/2-x,-1/2+y
22 y,-1/2-z,-1/2+x
23 -1/2-y,-1/2+z,x
24 -1/2+y,z,-1/2-x
_cell_length_a 14.1964(10)
_cell_length_b 14.1964(10)
_cell_length_c 14.1964(10)
_cell_angle_alpha 90
_cell_angle_beta 90
_cell_angle_gamma 90
_cell_formula_units_Z 4
loop_
_atom_type_symbol
_atom_type_radius_bond
C 0.68
H 0.23
I 1.40
Se 1.22
Zr 1.56
loop_
_atom_site_label
_atom_site_type_symbol
_atom_site_fract_x
_atom_site_fract_y
_atom_site_fract_z
Zr1 Zr 0.00000 0.50000 0.00000
I1 I 0.04375(5) 0.31167(5) 0.05634(5)
Se1 Se 0.24264(9) 0.24264(9) 0.24264(9)
C1 C 0.2038(15) 0.3705(15) 0.2794(14)
H1 H 0.25400 0.40300 0.31530
H2 H 0.18690 0.40890 0.22370
C2 C 0.1187(13) 0.3514(16) 0.3405(14)
H3 H 0.09250 0.41120 0.36290
H4 H 0.13740 0.31280 0.39460
H5 H 0.07100 0.31770 0.30360
I1T I 0.05634(5) 0.45625(5) -0.18833(5)
I1V I 0.18833(5) 0.55634(5) 0.04375(5)
I1L I -0.04375(5) 0.68833(5) -0.05634(5)
I1H I -0.05634(5) 0.54375(5) 0.18833(5)
I1J I -0.18833(5) 0.44366(5) -0.04375(5)
C1A C 0.2794(15) 0.2038(15) 0.3705(14)
C1B C 0.3705(15) 0.2794(15) 0.2038(14)
H1A H 0.31530 0.25400 0.40300
H1B H 0.40300 0.31530 0.25400
H2A H 0.22370 0.18690 0.40890
H2B H 0.40890 0.22370 0.18690
C2A C 0.3405(13) 0.1187(16) 0.3514(14)
C2B C 0.3514(13) 0.3405(16) 0.1187(14)
H3A H 0.36290 0.09250 0.41120
H3B H 0.41120 0.36290 0.09250
H4A H 0.39460 0.13740 0.31280
H4B H 0.31280 0.39460 0.13740
H5A H 0.30360 0.07100 0.31770
H5B H 0.31770 0.30360 0.07100
#END

data_CSD_CIF_RORXAA
_audit_creation_date 2019-08-19
_audit_creation_method CSD-ConQuest-V1
_database_code_CSD RORXAA
_database_code_depnum_ccdc_archive 'CCDC 1528108'
_chemical_formula_sum 'C6 H18 Cl3 N3 O12'
_chemical_formula_moiety
;
C6 H14 N2 2+,3(Cl1 O4 1-),H4 N1 1+
;
_journal_coden_Cambridge 1990
_journal_volume 61
_journal_year 2018
_journal_page_first 1123
_journal_name_full 'Sci. China Mater.(Zhongguo Kexue Zazhishe) '
loop_
_publ_author_name
"Shao-Li Chen"
"Zi-Run Yang"
"Bin-Jie Wang"
"Yu Shang"
"Lin-Yin Sun"
"Chun-Ting He"
"Hao-Long Zhou"
"Wei-Xiong Zhang"
"Xiao-Ming Chen"
_chemical_name_systematic
;
ammonium 1,4-diazabicyclo[2.2.2]octane-1,4-diium tris(perchlorate)
;
_cell_volume   3002.437
_exptl_crystal_colour 'colorless'
_exptl_crystal_density_diffrn 1.905
_exptl_crystal_description 'block'
_diffrn_ambient_temperature 223
#These two values have been output from a single CSD field.
_refine_ls_R_factor_gt 0.0275
_refine_ls_wR_factor_gt 0.0275
_symmetry_cell_setting cubic
_symmetry_space_group_name_H-M 'P a -3'
_symmetry_Int_Tables_number 205
loop_
_symmetry_equiv_pos_site_id
_symmetry_equiv_pos_as_xyz
1 x,y,z
2 z,x,y
3 y,z,x
4 1/2-y,-z,1/2+x
5 1/2+z,1/2-x,-y
6 -y,1/2+z,1/2-x
7 1/2-z,-x,1/2+y
8 -z,1/2+x,1/2-y
9 1/2+y,1/2-z,-x
10 1/2-x,-y,1/2+z
11 1/2+x,1/2-y,-z
12 -x,1/2+y,1/2-z
13 -x,-y,-z
14 -z,-x,-y
15 -y,-z,-x
16 -1/2+y,z,-1/2-x
17 -1/2-z,-1/2+x,y
18 y,-1/2-z,-1/2+x
19 -1/2+z,x,-1/2-y
20 z,-1/2-x,-1/2+y
21 -1/2-y,-1/2+z,x
22 -1/2+x,y,-1/2-z
23 -1/2-x,-1/2+y,z
24 x,-1/2-y,-1/2+z
_cell_length_a 14.4264(1)
_cell_length_b 14.4264(1)
_cell_length_c 14.4264(1)
_cell_angle_alpha 90
_cell_angle_beta 90
_cell_angle_gamma 90
_cell_formula_units_Z 8
loop_
_atom_type_symbol
_atom_type_radius_bond
C 0.68
H 0.23
Cl 0.99
N 0.68
O 0.68
loop_
_atom_site_label
_atom_site_type_symbol
_atom_site_fract_x
_atom_site_fract_y
_atom_site_fract_z
N1 N -0.29408(6) 0.20592(6) 0.29408(6)
H1 H -0.33370 0.16630 0.33370
N2 N -0.19416(6) 0.30584(6) 0.19416(6)
H2 H -0.15730 0.34270 0.15730
C1 C -0.34639(8) 0.29207(8) 0.26817(8)
H3 H -0.37470 0.31980 0.32340
H4 H -0.39580 0.27700 0.22400
C2 C -0.27758(9) 0.36010(8) 0.22431(9)
H5 H -0.30600 0.39090 0.17090
H6 H -0.25960 0.40750 0.26950
Cl1 Cl -0.48794(2) 0.24887(2) 0.00000(2)
O1 O -0.40439(6) 0.29962(6) -0.02157(7)
O2 O -0.56246(6) 0.31297(6) 0.01825(6)
O3 O -0.47303(7) 0.19149(6) 0.08038(6)
O4 O -0.51299(6) 0.19095(6) -0.07815(6)
N3 N -0.50000 0.50000 0.00000
H7 H -0.54120 0.54120 0.04120
N4 N -0.50000 0.00000 0.00000
H8 H -0.54120 0.04120 -0.04120
H9? H -0.45880 0.04120 0.04120
H10? H -0.45880 0.45880 0.04120
C1G C -0.26817(8) 0.15361(8) 0.20793(8)
H3G H -0.32340 0.12530 0.18020
H4G H -0.22400 0.10420 0.22300
C2G C -0.22431(9) 0.22242(8) 0.13990(9)
H5G H -0.17090 0.19400 0.10910
H6G H -0.26950 0.24040 0.09250
C1H C -0.20793(8) 0.23183(8) 0.34639(8)
H3H H -0.18020 0.17660 0.37470
H4H H -0.22300 0.27600 0.39580
C2H C -0.13990(9) 0.27569(8) 0.27758(9)
H5H H -0.10910 0.32910 0.30600
H6H H -0.09250 0.23050 0.25960
H7L H -0.45880 0.45880 -0.04120
H8L H -0.45880 -0.04120 0.04120
#END

data_CSD_CIF_SACBAA02
_audit_creation_date 2015-10-16
_audit_creation_method CSD-ConQuest-V1
_database_code_CSD SACBAA02
_database_code_depnum_ccdc_archive 'CCDC 1431769'
_chemical_formula_sum 'C1 O2'
_chemical_formula_moiety
;
C1 O2
;
_journal_coden_Cambridge 591
_journal_volume 54
_journal_year 1998
_journal_page_first 897
_journal_name_full 'Acta Crystallogr.,Sect.C:Cryst.Struct.Commun. '
loop_
_publ_author_name
"R.T.Downs"
"M.S.Somayazulu"
_chemical_name_systematic
;
carbon dioxide
;
_cell_volume    165.849
_exptl_crystal_colour 'colorless'
_exptl_crystal_density_diffrn 1.762
_exptl_special_details
;
cubic Pa3 polymorph

;
_exptl_crystal_description 'disc'
_diffrn_ambient_temperature 293
_diffrn_ambient_pressure 1000000.0
#These two values have been output from a single CSD field.
_refine_ls_R_factor_gt 0.018
_refine_ls_wR_factor_gt 0.018
_symmetry_cell_setting cubic
_symmetry_space_group_name_H-M 'P a 3'
_symmetry_Int_Tables_number 205
loop_
_symmetry_equiv_pos_site_id
_symmetry_equiv_pos_as_xyz
1 x,y,z
2 1/2-x,-y,1/2+z
3 1/2+x,1/2-y,-z
4 y,z,x
5 -x,1/2+y,1/2-z
6 1/2-y,-z,1/2+x
7 1/2+y,1/2-z,-x
8 -y,1/2+z,1/2-x
9 z,x,y
10 -z,1/2+x,1/2-y
11 1/2-z,-x,1/2+y
12 1/2+z,1/2-x,-y
13 -x,-y,-z
14 -1/2+x,y,-1/2-z
15 -1/2-x,-1/2+y,z
16 -y,-z,-x
17 x,-1/2-y,-1/2+z
18 -1/2+y,z,-1/2-x
19 -1/2-y,-1/2+z,x
20 y,-1/2-z,-1/2+x
21 -z,-x,-y
22 z,-1/2-x,-1/2+y
23 -1/2+z,x,-1/2-y
24 -1/2-z,-1/2+x,y
_cell_length_a 5.4942(2)
_cell_length_b 5.4942(2)
_cell_length_c 5.4942(2)
_cell_angle_alpha 90
_cell_angle_beta 90
_cell_angle_gamma 90
_cell_formula_units_Z 4
loop_
_atom_type_symbol
_atom_type_radius_bond
C 0.68
O 0.68
loop_
_atom_site_label
_atom_site_type_symbol
_atom_site_fract_x
_atom_site_fract_y
_atom_site_fract_z
C1 C 0.00000 0.00000 0.00000
O1 O 0.1207(3) 0.1207(3) 0.1207(3)
O1L O -0.1207(3) -0.1207(3) -0.1207(3)
#END

data_CSD_CIF_SADXUQ
_audit_creation_date 1999-01-22
_audit_creation_method CSD-ConQuest-V1
_database_code_CSD SADXUQ
_database_code_depnum_ccdc_journal 182/792 (not 182/797 as published)
_chemical_formula_sum 'C36 H81 Cl1 Li1 N4 O3 Si3 Y1'
_chemical_formula_moiety
;
C36 H81 Cl1 Li1 N4 O3 Si3 Y1
;
_journal_coden_Cambridge 182
_journal_year 1998
_journal_page_first 801
_journal_name_full 'Chem.Commun. '
loop_
_publ_author_name
"P.Roussel"
"N.W.Alcock"
"P.Scott"
_chemical_name_systematic
;
(\m~2~-Chloro)-(tris((t-butyldimethylsilylamido)ethyl)amino)-tris(tetrahydrofu
ran)-lithium-yttrium
;
_cell_volume   9918.973
_exptl_crystal_colour 'colorless'
_exptl_crystal_density_diffrn 1.116
_exptl_crystal_description 'needles'
_diffrn_ambient_temperature 180
#These two values have been output from a single CSD field.
_refine_ls_R_factor_gt 0.0486
_refine_ls_wR_factor_gt 0.0486
_symmetry_cell_setting cubic
_symmetry_space_group_name_H-M 'P a -3'
_symmetry_Int_Tables_number 205
loop_
_symmetry_equiv_pos_site_id
_symmetry_equiv_pos_as_xyz
1 x,y,z
2 1/2-x,-y,1/2+z
3 1/2+x,1/2-y,-z
4 z,x,y
5 -x,1/2+y,1/2-z
6 1/2-z,-x,1/2+y
7 1/2+z,1/2-x,-y
8 -z,1/2+x,1/2-y
9 y,z,x
10 1/2+y,1/2-z,-x
11 -y,1/2+z,1/2-x
12 1/2-y,-z,1/2+x
13 -x,-y,-z
14 -1/2+x,y,-1/2-z
15 -1/2-x,-1/2+y,z
16 -z,-x,-y
17 x,-1/2-y,-1/2+z
18 -1/2+z,x,-1/2-y
19 -1/2-z,-1/2+x,y
20 z,-1/2-x,-1/2+y
21 -y,-z,-x
22 -1/2-y,-1/2+z,x
23 y,-1/2-z,-1/2+x
24 -1/2+y,z,-1/2-x
_cell_length_a 21.486(2)
_cell_length_b 21.486(2)
_cell_length_c 21.486(2)
_cell_angle_alpha 90
_cell_angle_beta 90
_cell_angle_gamma 90
_cell_formula_units_Z 8
loop_
_atom_type_symbol
_atom_type_radius_bond
C 0.68
H 0.23
Cl 0.99
Li 0.93
N 0.68
O 0.68
Si 1.20
Y 1.78
loop_
_atom_site_label
_atom_site_type_symbol
_atom_site_fract_x
_atom_site_fract_y
_atom_site_fract_z
Y1 Y 0.86742(1) 0.36742(1) 0.13258(1)
Si1 Si 0.73448(4) 0.44941(4) 0.07889(5)
Cl1 Cl 0.79614(4) 0.29614(4) 0.20386(4)
N1 N 0.93697(12) 0.43697(12) 0.06303(12)
O1 O 0.69667(15) 0.28373(14) 0.33163(13)
Li1 Li 0.7339(3) 0.2339(3) 0.2661(3)
C1 C 0.89493(16) 0.47016(16) 0.01978(15)
N2 N 0.80517(12) 0.41689(12) 0.06583(12)
C2 C 0.83758(16) 0.43101(17) 0.00724(16)
C3 C 0.72234(18) 0.4547(2) 0.16506(17)
C4 C 0.72934(19) 0.53121(17) 0.0470(2)
C5 C 0.66911(16) 0.40210(18) 0.04331(18)
C6 C 0.6647(2) 0.3386(2) 0.0744(3)
C7 C 0.6833(2) 0.3927(2) -0.0261(2)
C8 C 0.60595(18) 0.4352(2) 0.0487(2)
C9 C 0.6670(3) 0.3427(3) 0.3237(3)
C10 C 0.6697(3) 0.3765(3) 0.3838(4)
C11 C 0.6843(3) 0.3278(4) 0.4287(3)
C12 C 0.7087(4) 0.2766(3) 0.3951(3)
H1 H 0.91690 0.47860 -0.01980
H2 H 0.88250 0.51050 0.03820
H3 H 0.80920 0.45380 -0.02100
H4 H 0.84990 0.39170 -0.01350
H5 H 0.72460 0.41300 0.18330
H6 H 0.68130 0.47280 0.17360
H7 H 0.75470 0.48110 0.18340
H8 H 0.76280 0.55660 0.06480
H9 H 0.68900 0.54930 0.05800
H10 H 0.73360 0.53010 0.00160
H11 H 0.63080 0.31470 0.05540
H12 H 0.65650 0.34400 0.11890
H13 H 0.70410 0.31620 0.06880
H14 H 0.65000 0.36820 -0.04520
H15 H 0.72300 0.37060 -0.03060
H16 H 0.68610 0.43330 -0.04670
H17 H 0.57350 0.40920 0.02990
H18 H 0.60790 0.47520 0.02700
H19 H 0.59620 0.44220 0.09270
H20 H 0.62320 0.33670 0.31080
H21 H 0.68860 0.36690 0.29090
H22 H 0.70250 0.40880 0.38320
H23 H 0.62930 0.39640 0.39340
H24 H 0.71520 0.34300 0.45920
H25 H 0.64620 0.31520 0.45150
H26 H 0.75410 0.27370 0.40200
H27 H 0.68940 0.23750 0.41020
O1G O 0.66837(15) 0.19667(14) 0.21627(13)
C9G C 0.6763(3) 0.1670(3) 0.1573(3)
C10G C 0.6162(3) 0.1697(3) 0.1235(4)
C11G C 0.5713(3) 0.1843(4) 0.1722(3)
C12G C 0.6049(4) 0.2087(3) 0.2234(3)
H26G H 0.59800 0.25410 0.22630
H27G H 0.58980 0.18940 0.26250
H24G H 0.54080 0.21520 0.15700
H25G H 0.54850 0.14620 0.18480
H22G H 0.61680 0.20250 0.09120
H23G H 0.60660 0.12930 0.10360
H20G H 0.68920 0.12320 0.16330
H21G H 0.70910 0.18860 0.13310
O1I O 0.78373(15) 0.16837(14) 0.30333(13)
C9I C 0.8427(3) 0.1763(3) 0.3330(3)
C10I C 0.8765(3) 0.1162(3) 0.3303(4)
C11I C 0.8278(3) 0.0713(4) 0.3157(3)
C12I C 0.7766(4) 0.1049(3) 0.2913(3)
H26I H 0.77370 0.09800 0.24590
H27I H 0.73750 0.08980 0.31060
H24I H 0.84300 0.04080 0.28480
H25I H 0.81520 0.04850 0.35380
H22I H 0.90880 0.11680 0.29750
H23I H 0.89640 0.10660 0.37070
H20I H 0.83670 0.18920 0.37680
H21I H 0.86690 0.20910 0.31140
N2G N 0.93417(12) 0.30517(12) 0.08311(12)
Si1G Si 0.92111(4) 0.23448(4) 0.05059(5)
C3G C 0.83494(18) 0.22234(20) 0.04530(17)
H5G H 0.81670 0.22460 0.08700
H6G H 0.82640 0.18130 0.02720
H7G H 0.81660 0.25470 0.01890
C4G C 0.95300(19) 0.22934(17) -0.03121(20)
H8G H 0.93520 0.26280 -0.05660
H9G H 0.94200 0.18900 -0.04930
H10G H 0.99840 0.23360 -0.03010
C5G C 0.95669(16) 0.16911(18) 0.09790(18)
C6G C 0.9256(2) 0.1647(2) 0.1614(3)
H11G H 0.94460 0.13080 0.18530
H12G H 0.88110 0.15650 0.15600
H13G H 0.93120 0.20410 0.18380
C7G C 1.0261(2) 0.1833(2) 0.1073(2)
H14G H 1.04520 0.15000 0.13180
H15G H 1.03060 0.22300 0.12940
H16G H 1.04670 0.18610 0.06670
C8G C 0.95130(18) 0.10595(20) 0.0648(2)
H17G H 0.97010 0.07350 0.09080
H18G H 0.97300 0.10790 0.02480
H19G H 0.90730 0.09620 0.05780
C2G C 0.99276(16) 0.33758(17) 0.06899(16)
C1G C 0.98022(16) 0.39493(16) 0.02984(15)
C1I C 0.97016(16) 0.48022(16) 0.10507(15)
C2I C 0.93101(16) 0.49276(17) 0.16242(16)
N2I N 0.91689(12) 0.43417(12) 0.19483(12)
Si1I Si 0.94941(4) 0.42111(4) 0.26552(5)
C3I C 0.95470(18) 0.33494(20) 0.27766(17)
H5I H 0.91300 0.31670 0.27540
H6I H 0.97280 0.32640 0.31870
H7I H 0.98110 0.31660 0.24530
C4I C 1.03121(19) 0.45300(17) 0.27066(20)
H8I H 1.05660 0.43520 0.23720
H9I H 1.04930 0.44200 0.31100
H10I H 1.03010 0.49840 0.26640
C5I C 0.90210(16) 0.45669(18) 0.33089(18)
C6I C 0.8386(2) 0.4256(2) 0.3353(3)
H11I H 0.81470 0.44460 0.36920
H12I H 0.84400 0.38110 0.34350
H13I H 0.81620 0.43120 0.29590
C7I C 0.8927(2) 0.5261(2) 0.3167(2)
H14I H 0.86820 0.54520 0.35000
H15I H 0.87060 0.53060 0.27700
H16I H 0.93330 0.54670 0.31390
C8I C 0.93520(18) 0.4513(2) 0.39405(20)
H17I H 0.90920 0.47010 0.42650
H18I H 0.97520 0.47300 0.39210
H19I H 0.94220 0.40730 0.40380
H3I H 0.95380 0.52100 0.19080
H4I H 0.89170 0.51350 0.15010
H1I H 0.97860 0.51980 0.08310
H2I H 1.01050 0.46180 0.11750
H1G H 1.01980 0.41690 0.02140
H2G H 0.96180 0.38250 -0.01050
H3G H 1.02100 0.30920 0.04620
H4G H 1.01350 0.34990 0.10830
#END

data_CSD_CIF_SAKYOS10
_audit_creation_date 1990-03-16
_audit_creation_method CSD-ConQuest-V1
_database_code_CSD SAKYOS10
_chemical_formula_sum 'C11 H27 N3 O3'
_chemical_formula_moiety
;
C11 H21 N3,3(H2 O1)
;
_journal_coden_Cambridge 10
_journal_volume 72
_journal_year 1989
_journal_page_first 1125
_journal_name_full 'Helv.Chim.Acta '
loop_
_publ_author_name
"P.Seiler"
"J.D.Dunitz"
_chemical_name_systematic
;
9b-Methyl-perhydro-3a,6a,9a-triazaphenalene trihydrate
;
_chemical_melting_point 283
_cell_volume   2582.066
_exptl_crystal_density_diffrn 1.28
_exptl_special_details
;
Melting point range 283-289K

;
_diffrn_ambient_temperature 81
#These two values have been output from a single CSD field.
_refine_ls_R_factor_gt 0.031
_refine_ls_wR_factor_gt 0.031
_symmetry_cell_setting cubic
_symmetry_space_group_name_H-M 'P a 3'
_symmetry_Int_Tables_number 205
loop_
_symmetry_equiv_pos_site_id
_symmetry_equiv_pos_as_xyz
1 x,y,z
2 z,x,y
3 y,z,x
4 1/2+x,y,1/2-z
5 1/2+z,x,1/2-y
6 1/2+y,z,1/2-x
7 1/2-x,1/2+y,z
8 1/2-z,1/2+x,y
9 1/2-y,1/2+z,x
10 -x,1/2+y,1/2-z
11 -z,1/2+x,1/2-y
12 -y,1/2+z,1/2-x
13 -x,-y,-z
14 -z,-x,-y
15 -y,-z,-x
16 -1/2-x,-y,-1/2+z
17 -1/2-z,-x,-1/2+y
18 -1/2-y,-z,-1/2+x
19 -1/2+x,-1/2-y,-z
20 -1/2+z,-1/2-x,-y
21 -1/2+y,-1/2-z,-x
22 x,-1/2-y,-1/2+z
23 z,-1/2-x,-1/2+y
24 y,-1/2-z,-1/2+x
_cell_length_a 13.719(3)
_cell_length_b 13.719(3)
_cell_length_c 13.719(3)
_cell_angle_alpha 90
_cell_angle_beta 90
_cell_angle_gamma 90
_cell_formula_units_Z 8
loop_
_atom_type_symbol
_atom_type_radius_bond
C 0.68
H 0.23
N 0.68
O 0.68
loop_
_atom_site_label
_atom_site_type_symbol
_atom_site_fract_x
_atom_site_fract_y
_atom_site_fract_z
O1 O 0.39573(4) 0.40245(4) 0.60425(4)
C1 C 0.32905(4) 0.32905 0.32905
N1 N 0.31189(4) 0.31235(4) 0.43465(4)
C2 C 0.21159(5) 0.33651(5) 0.46471(5)
C3 C 0.19042(5) 0.44273(5) 0.44170(5)
C4 C 0.33493(5) 0.21155(5) 0.46330(5)
C5 C 0.26335(4) 0.26335 0.26335
H1 H 0.379(1) 0.384(1) 0.545(1)
H2 H 0.391(1) 0.467(1) 0.605(1)
H3 H 0.2096(9) 0.3240(9) 0.5354(9)
H4 H 0.1631(9) 0.2931(9) 0.4323(9)
H5 H 0.123(1) 0.4578(9) 0.4558(9)
H6 H 0.231(1) 0.484(1) 0.4837(9)
H7 H 0.3212(9) 0.2090(9) 0.5331(9)
H8 H 0.2921(9) 0.1642(9) 0.429(1)
H9 H 0.213(1) 0.227(1) 0.302(1)
N1A N 0.43465(4) 0.31189(4) 0.31235(4)
N1B N 0.31235(4) 0.43465(4) 0.31189(4)
C4B C 0.21155(5) 0.46330(5) 0.33493(5)
C3A C 0.44170(5) 0.19042(5) 0.44273(5)
H9A H 0.302(1) 0.213(1) 0.227(1)
H9B H 0.227(1) 0.302(1) 0.213(1)
C2A C 0.46471(5) 0.21159(5) 0.33651(5)
C4A C 0.46330(5) 0.33493(5) 0.21155(5)
C2B C 0.33651(5) 0.46471(5) 0.21159(5)
H7B H 0.2090(9) 0.5331(9) 0.3212(9)
H8B H 0.1642(9) 0.4290(9) 0.2921(10)
H5A H 0.4558(10) 0.1230(9) 0.4578(9)
H6A H 0.4837(10) 0.231(1) 0.4840(9)
H3A H 0.5354(9) 0.2096(9) 0.3240(9)
H4A H 0.4323(9) 0.1631(9) 0.2931(9)
C3B C 0.44273(5) 0.44170(5) 0.19042(5)
H7A H 0.5331(9) 0.3212(9) 0.2090(9)
H8A H 0.4290(9) 0.2921(9) 0.1642(10)
H3B H 0.3240(9) 0.5354(9) 0.2096(9)
H4B H 0.2931(9) 0.4323(9) 0.1631(9)
H5B H 0.4578(10) 0.4558(9) 0.1230(9)
H6B H 0.484(1) 0.4837(10) 0.2310(9)
#END

data_CSD_CIF_SERJIJ
_audit_creation_date 2007-02-08
_audit_creation_method CSD-ConQuest-V1
_database_code_CSD SERJIJ
_database_code_depnum_ccdc_archive 'CCDC 604207'
_chemical_formula_sum 'C82 H90 N8 Ni38 O48 Pt6'
_chemical_formula_moiety
;
6(C4 H12 N1 1+),C48 Ni38 O48 Pt6 6-,C6 H12,2(C2 H3 N1)
;
_journal_coden_Cambridge 9
_journal_volume 45
_journal_year 2006
_journal_page_first 8814
_journal_name_full 'Inorg.Chem. '
loop_
_publ_author_name
"N.de Silva"
"L.F.Dahl"
_chemical_name_systematic
;
hexakis(Tetramethylammonium) 
octadecakis(\m~3~-carbonyl)-dodecakis(\m~2~-carbonyl)-octadecacarbonyl-octatri
aconta-nickel-hexa-platinum cyclohexane acetonitrile solvate
;
_cell_volume  12197.655
_exptl_crystal_colour 'dark red'
_exptl_crystal_density_diffrn 2.917
_exptl_special_details
;
paper gives study temperature as 173 K

;
_exptl_crystal_description 'block'
_diffrn_ambient_temperature 100
#These two values have been output from a single CSD field.
_refine_ls_R_factor_gt 0.0301
_refine_ls_wR_factor_gt 0.0301
_symmetry_cell_setting cubic
_symmetry_space_group_name_H-M 'P a -3'
_symmetry_Int_Tables_number 205
loop_
_symmetry_equiv_pos_site_id
_symmetry_equiv_pos_as_xyz
1 x,y,z
2 z,x,y
3 y,z,x
4 1/2-x,-y,1/2+z
5 -x,1/2+y,1/2-z
6 1/2+x,1/2-y,-z
7 1/2+z,1/2-x,-y
8 1/2-z,-x,1/2+y
9 -z,1/2+x,1/2-y
10 -y,1/2+z,1/2-x
11 1/2+y,1/2-z,-x
12 1/2-y,-z,1/2+x
13 -x,-y,-z
14 -z,-x,-y
15 -y,-z,-x
16 -1/2+x,y,-1/2-z
17 x,-1/2-y,-1/2+z
18 -1/2-x,-1/2+y,z
19 -1/2-z,-1/2+x,y
20 -1/2+z,x,-1/2-y
21 z,-1/2-x,-1/2+y
22 y,-1/2-z,-1/2+x
23 -1/2-y,-1/2+z,x
24 -1/2+y,z,-1/2-x
_cell_length_a 23.0193(18)
_cell_length_b 23.0193(18)
_cell_length_c 23.0193(18)
_cell_angle_alpha 90
_cell_angle_beta 90
_cell_angle_gamma 90
_cell_formula_units_Z 4
loop_
_atom_type_symbol
_atom_type_radius_bond
C 0.68
H 0.23
N 0.68
Ni 1.30
O 0.68
Pt 1.30
loop_
_atom_site_label
_atom_site_type_symbol
_atom_site_fract_x
_atom_site_fract_y
_atom_site_fract_z
Pt1 Pt 0.581834(11) 0.489266(12) 0.009629(12)
Ni1 Ni 0.58533(4) 0.41467(4) -0.08533(4)
Ni2 Ni 0.58197(4) 0.56009(4) 0.09986(4)
Ni3 Ni 0.66568(4) 0.55688(4) 0.03005(4)
Ni4 Ni 0.66576(4) 0.49029(4) -0.06389(4)
Ni5 Ni 0.64727(4) 0.47285(4) 0.09612(4)
Ni6 Ni 0.64522(4) 0.39723(4) 0.00894(4)
Ni7 Ni 0.72792(4) 0.46207(4) 0.01642(4)
O1 O 0.5907(2) 0.6358(2) 0.1993(2)
O2 O 0.6969(2) 0.5746(2) 0.1508(2)
O3 O 0.7884(2) 0.4908(2) -0.0893(2)
O4 O 0.7688(3) 0.6227(3) 0.0001(3)
O5 O 0.7552(2) 0.3397(2) 0.0285(2)
C1 C 0.7285(3) 0.5974(3) 0.0129(3)
O6 O 0.7225(3) 0.4113(3) 0.1764(3)
C2 C 0.5665(3) 0.6121(3) 0.1611(3)
C3 C 0.6334(3) 0.3450(3) -0.0573(3)
C4 C 0.7233(3) 0.3778(3) 0.0211(3)
C5 C 0.6650(3) 0.5545(3) 0.1160(3)
C6 C 0.7468(3) 0.4849(3) -0.0617(3)
O7 O 0.8330(3) 0.4896(3) 0.0813(3)
C7 C 0.6928(3) 0.4354(3) 0.1452(3)
C8 C 0.7926(3) 0.4781(3) 0.0548(3)
O8 O 0.6633(2) 0.3143(2) -0.0843(2)
N1 N 0.6610(3) 0.6549(3) 0.3426(3)
N2 N 0.7794(5) 0.2794(5) 0.2206(5)
C9 C 0.8077(5) 0.3077(5) 0.1923(5)
C10 C 0.8445(4) 0.3445(4) 0.1555(4)
H1 H 0.83080 0.34290 0.11610
H2 H 0.88390 0.33080 0.15710
H3 H 0.84290 0.38390 0.16920
C11 C 0.6971(4) 0.6640(4) 0.3938(4)
H4 H 0.73250 0.68290 0.38260
H5 H 0.70600 0.62710 0.41120
H6 H 0.67660 0.68780 0.42120
C12 C 0.6909(5) 0.6224(5) 0.2972(5)
H7 H 0.66580 0.61850 0.26410
H8 H 0.70090 0.58450 0.31150
H9 H 0.72550 0.64270 0.28600
C13 C 0.6377(6) 0.7086(5) 0.3191(5)
H10 H 0.62020 0.73070 0.34980
H11 H 0.60900 0.69980 0.29020
H12 H 0.66850 0.73070 0.30190
C14 C 0.6104(5) 0.6163(5) 0.3593(5)
H13 H 0.58850 0.63450 0.38970
H14 H 0.62480 0.57950 0.37260
H15 H 0.58580 0.61050 0.32610
C15 C 0.5490(7) 0.5086(10) 0.4576(8)
H16 H 0.57690 0.53310 0.47750
H17 H 0.56440 0.50030 0.41920
Pt1S Pt 0.509629(11) 0.581834(12) 0.010734(12)
Pt1I Pt 0.510734(11) 0.509629(12) -0.081834(12)
Pt1L Pt 0.418166(11) 0.510734(12) -0.009629(12)
Pt1G Pt 0.490371(11) 0.418166(12) -0.010734(12)
Pt1U Pt 0.489266(11) 0.490371(12) 0.081834(12)
Ni1S Ni 0.41467(4) 0.58533(4) 0.08533(4)
Ni2I Ni 0.43991(4) 0.59986(4) -0.08197(4)
Ni2L Ni 0.41803(4) 0.43991(4) -0.09986(4)
Ni2S Ni 0.59986(4) 0.58197(4) -0.06009(4)
Ni2U Ni 0.56009(4) 0.40014(4) 0.08197(4)
Ni2G Ni 0.40014(4) 0.41803(4) 0.06009(4)
Ni3S Ni 0.53005(4) 0.66568(4) -0.05688(4)
Ni3U Ni 0.55688(4) 0.46995(4) 0.16568(4)
Ni3L Ni 0.33432(4) 0.44312(4) -0.03005(4)
Ni3G Ni 0.46995(4) 0.33432(4) 0.05688(4)
Ni3I Ni 0.44312(4) 0.53005(4) -0.16568(4)
Ni4S Ni 0.43611(4) 0.66576(4) 0.00971(4)
Ni4U Ni 0.49029(4) 0.56389(4) 0.16576(4)
Ni4G Ni 0.56389(4) 0.33424(4) -0.00971(4)
Ni4I Ni 0.50971(4) 0.43611(4) -0.16576(4)
Ni4L Ni 0.33424(4) 0.50971(4) 0.06389(4)
Ni5S Ni 0.59612(4) 0.64727(4) 0.02715(4)
Ni5U Ni 0.47285(4) 0.40388(4) 0.14727(4)
Ni5I Ni 0.52715(4) 0.59612(4) -0.14727(4)
Ni5G Ni 0.40388(4) 0.35273(4) -0.02715(4)
Ni5L Ni 0.35273(4) 0.52715(4) -0.09612(4)
Ni6S Ni 0.50894(4) 0.64522(4) 0.10277(4)
Ni6U Ni 0.39723(4) 0.49106(4) 0.14522(4)
Ni6I Ni 0.60277(4) 0.50894(4) -0.14522(4)
Ni6G Ni 0.49106(4) 0.35478(4) -0.10277(4)
Ni6L Ni 0.35478(4) 0.60277(4) -0.00894(4)
Ni7L Ni 0.27208(4) 0.53793(4) -0.01642(4)
Ni7S Ni 0.51642(4) 0.72792(4) 0.03793(4)
Ni7U Ni 0.46207(4) 0.48358(4) 0.22792(4)
Ni7I Ni 0.53793(4) 0.51642(4) -0.22792(4)
Ni7G Ni 0.48358(4) 0.27208(4) -0.03793(4)
O1G O 0.3007(2) 0.4093(2) 0.1358(2)
O1U O 0.6358(2) 0.3007(2) 0.0907(2)
O1S O 0.6993(2) 0.5907(2) -0.1358(2)
O1I O 0.3642(2) 0.6993(2) -0.0907(2)
O1L O 0.4093(2) 0.3642(2) -0.1993(2)
O2L O 0.3031(2) 0.4254(2) -0.1508(2)
O2G O 0.3492(2) 0.3031(2) 0.0746(2)
O2I O 0.4254(2) 0.6508(2) -0.1969(2)
O2S O 0.6508(2) 0.6969(2) -0.0746(2)
O2U O 0.5746(2) 0.3492(2) 0.1969(2)
O3L O 0.2116(2) 0.5092(2) 0.0893(2)
O3G O 0.5893(2) 0.2116(2) -0.0092(2)
O3I O 0.5092(2) 0.4107(2) -0.2884(2)
O3U O 0.4908(2) 0.5893(2) 0.2884(2)
O3S O 0.4107(2) 0.7884(2) 0.0092(2)
O4U O 0.6227(3) 0.4999(3) 0.2688(3)
O4I O 0.3773(3) 0.5001(3) -0.2688(3)
O4L O 0.2312(3) 0.3773(3) -0.0001(3)
O4G O 0.4999(3) 0.2312(3) 0.1227(3)
O4S O 0.5001(3) 0.7688(3) -0.1227(3)
O5L O 0.2448(2) 0.6603(2) -0.0285(2)
O5G O 0.4715(2) 0.2448(2) -0.1603(2)
O5I O 0.6603(2) 0.5285(2) -0.2552(2)
O5U O 0.3397(2) 0.4715(2) 0.2552(2)
O5S O 0.5285(2) 0.7552(2) 0.1603(2)
C1U C 0.5974(3) 0.4871(3) 0.2285(3)
C1I C 0.4026(3) 0.5129(3) -0.2285(3)
C1L C 0.2715(3) 0.4026(3) -0.0129(3)
C1G C 0.4871(3) 0.2715(3) 0.0974(3)
C1S C 0.5129(3) 0.7285(3) -0.0974(3)
O6L O 0.2775(3) 0.5887(3) -0.1764(3)
O6G O 0.3236(3) 0.2775(3) -0.0887(3)
O6I O 0.5887(3) 0.6764(3) -0.2225(3)
O6S O 0.6764(3) 0.7225(3) 0.0887(3)
O6U O 0.4113(3) 0.3236(3) 0.2225(3)
C2U C 0.6121(3) 0.3389(3) 0.0665(3)
C2S C 0.6611(3) 0.5665(3) -0.1121(3)
C2G C 0.3389(3) 0.4335(3) 0.1121(3)
C2I C 0.3879(3) 0.6611(3) -0.0665(3)
C2L C 0.4335(3) 0.3879(3) -0.1611(3)
C3S C 0.4427(3) 0.6334(3) 0.1550(3)
C3U C 0.3450(3) 0.5573(3) 0.1334(3)
C3L C 0.3666(3) 0.6550(3) 0.0573(3)
C3I C 0.6550(3) 0.4427(3) -0.1334(3)
C3G C 0.5573(3) 0.3666(3) -0.1550(3)
C4I C 0.6222(3) 0.5211(3) -0.2233(3)
C4L C 0.2767(3) 0.6222(3) -0.0211(3)
C4G C 0.4789(3) 0.2767(3) -0.1222(3)
C4U C 0.3778(3) 0.4789(3) 0.2233(3)
C4S C 0.5211(3) 0.7233(3) 0.1222(3)
C5U C 0.5545(3) 0.3840(3) 0.1650(3)
C5S C 0.6160(3) 0.6650(3) -0.0545(3)
C5I C 0.4455(3) 0.6160(3) -0.1650(3)
C5L C 0.3350(3) 0.4455(3) -0.1160(3)
C5G C 0.3840(3) 0.3350(3) 0.0545(3)
C6S C 0.4383(3) 0.7468(3) 0.0151(3)
C6I C 0.5151(3) 0.4383(3) -0.2468(3)
C6L C 0.2532(3) 0.5151(3) 0.0617(3)
C6G C 0.5617(3) 0.2532(3) -0.0151(3)
C6U C 0.4849(3) 0.5617(3) 0.2468(3)
O7L O 0.1670(3) 0.5104(3) -0.0813(3)
O7G O 0.4187(3) 0.1670(3) -0.0104(3)
O7I O 0.5104(3) 0.5813(3) -0.3330(3)
O7U O 0.4896(3) 0.4187(3) 0.3330(3)
O7S O 0.5813(3) 0.8330(3) 0.0104(3)
C7L C 0.3072(3) 0.5646(3) -0.1452(3)
C7G C 0.3548(3) 0.3072(3) -0.0646(3)
C7I C 0.5646(3) 0.6452(3) -0.1928(3)
C7S C 0.6452(3) 0.6928(3) 0.0646(3)
C7U C 0.4354(3) 0.3548(3) 0.1928(3)
C8L C 0.2074(3) 0.5219(3) -0.0548(3)
C8G C 0.4452(3) 0.2074(3) -0.0219(3)
C8I C 0.5219(3) 0.5548(3) -0.2926(3)
C8U C 0.4781(3) 0.4452(3) 0.2926(3)
C8S C 0.5548(3) 0.7926(3) 0.0219(3)
O8I O 0.6857(2) 0.4157(2) -0.1633(2)
O8L O 0.3367(2) 0.6857(2) 0.0843(2)
O8U O 0.3143(2) 0.5843(2) 0.1633(2)
O8G O 0.5843(2) 0.3367(2) -0.1857(2)
O8S O 0.4157(2) 0.6633(2) 0.1857(2)
C15M C 0.5424(7) 0.451(1) 0.4914(8)
C15B C 0.5086(7) 0.4576(10) 0.5490(8)
C15L C 0.4510(7) 0.4914(10) 0.5424(8)
C15A C 0.4576(7) 0.549(1) 0.5086(8)
C15N C 0.4914(7) 0.5424(10) 0.4510(8)
H16N H 0.46690 0.52250 0.42310
H16A H 0.47750 0.57690 0.53310
H16L H 0.42310 0.46690 0.52250
H16B H 0.53310 0.47750 0.57690
H16M H 0.52250 0.42310 0.46690
H17N H 0.49970 0.58080 0.43560
H17A H 0.41920 0.56440 0.50030
H17L H 0.43560 0.49970 0.58080
H17B H 0.50030 0.41920 0.56440
H17M H 0.58080 0.43560 0.49970
#END

data_CSD_CIF_SIHLAW
_audit_creation_date 1991-06-25
_audit_creation_method CSD-ConQuest-V1
_database_code_CSD SIHLAW
_database_code_depnum_ccdc_fiz 'CSD 54452'
_chemical_formula_sum 'C18 H27 Cl1 Os2'
_chemical_formula_moiety
;
C18 H27 Os2 1+,Cl1 1-
;
_journal_coden_Cambridge 36
_journal_volume 394
_journal_year 1990
_journal_page_first 469
_journal_name_full 'J.Organomet.Chem. '
loop_
_publ_author_name
"M.Schulz"
"S.Stahl"
"H.Werner"
_chemical_name_systematic
;
tris(\m~2~-Hydrido)-bis((\h^6^-mesitylene)-osmium) chloride
;
_cell_volume   1852.709
_exptl_crystal_colour 'orange-red'
_exptl_crystal_density_diffrn 2.37
_diffrn_ambient_temperature ?
_diffrn_special_details
;
The study was carried out at room temperature,in the range 283-303K

;
#These two values have been output from a single CSD field.
_refine_ls_R_factor_gt 0.029
_refine_ls_wR_factor_gt 0.029
_symmetry_cell_setting cubic
_symmetry_space_group_name_H-M 'P a 3'
_symmetry_Int_Tables_number 205
loop_
_symmetry_equiv_pos_site_id
_symmetry_equiv_pos_as_xyz
1 x,y,z
2 z,x,y
3 y,z,x
4 1/2+x,y,1/2-z
5 1/2+z,x,1/2-y
6 1/2+y,z,1/2-x
7 1/2-x,1/2+y,z
8 1/2-z,1/2+x,y
9 1/2-y,1/2+z,x
10 -x,1/2+y,1/2-z
11 -z,1/2+x,1/2-y
12 -y,1/2+z,1/2-x
13 -x,-y,-z
14 -z,-x,-y
15 -y,-z,-x
16 -1/2-x,-y,-1/2+z
17 -1/2-z,-x,-1/2+y
18 -1/2-y,-z,-1/2+x
19 -1/2+x,-1/2-y,-z
20 -1/2+z,-1/2-x,-y
21 -1/2+y,-1/2-z,-x
22 x,-1/2-y,-1/2+z
23 z,-1/2-x,-1/2+y
24 y,-1/2-z,-1/2+x
_cell_length_a 12.282(1)
_cell_length_b 12.282(1)
_cell_length_c 12.282(1)
_cell_angle_alpha 90
_cell_angle_beta 90
_cell_angle_gamma 90
_cell_formula_units_Z 4
loop_
_atom_type_symbol
_atom_type_radius_bond
C 0.68
H 0.23
Cl 0.99
Os 1.37
loop_
_atom_site_label
_atom_site_type_symbol
_atom_site_fract_x
_atom_site_fract_y
_atom_site_fract_z
Os1 Os 0.05810 0.05810 0.05817(2)
Cl1 Cl 0.00000 0.50000 0.00000
C1 C 0.0450(7) 0.1730(7) 0.1983(7)
C2 C 0.0795(7) 0.2313(7) 0.1046(8)
C3 C -0.0547(9) 0.207(1) 0.2626(9)
H1? H 0.04400 -0.09200 0.04800
H2? H 0.04900 0.04300 -0.09200
H3? H -0.09200 0.04800 0.04300
H4? H 0.08400 0.01900 0.28600
H5? H -0.06400 0.15900 0.32200
H6? H -0.04500 0.27900 0.28900
H7? H -0.11700 0.20500 0.21700
Os1L Os -0.05810 -0.05810 -0.05817(2)
C1A C 0.1983(7) 0.0450(7) 0.1730(7)
C1B C 0.1730(7) 0.1983(7) 0.0450(7)
C2A C 0.1046(7) 0.0795(7) 0.2313(8)
C2B C 0.2313(7) 0.1046(7) 0.0795(8)
C1L C -0.0450(7) -0.1730(7) -0.1983(7)
C1M C -0.1983(7) -0.0450(7) -0.1730(7)
C1N C -0.1730(7) -0.1983(7) -0.0450(7)
C2L C -0.0795(7) -0.2313(7) -0.1046(8)
C2M C -0.1046(7) -0.0795(7) -0.2313(8)
C2N C -0.2313(7) -0.1046(7) -0.0795(8)
C3A C 0.2626(9) -0.0547(10) 0.2070(9)
C3B C 0.2070(9) 0.2626(10) -0.0547(9)
C3L C 0.0547(9) -0.207(1) -0.2626(9)
C3M C -0.2626(9) 0.0547(10) -0.2070(9)
C3N C -0.2070(9) -0.2626(10) 0.0547(9)
#END

data_CSD_CIF_SIRYID
_audit_creation_date 2013-12-17
_audit_creation_method CSD-ConQuest-V1
_database_code_CSD SIRYID
_database_code_depnum_ccdc_archive 'CCDC 971997'
_chemical_formula_sum 'C22 H48 Cl4 N6 Ni1'
_chemical_formula_moiety
;
C22 H48 N6 2+,Cl4 Ni1 2-
;
_journal_coden_Cambridge 222
_journal_volume 43
_journal_year 2014
_journal_page_first 2907
_journal_name_full 'Dalton Trans. '
loop_
_publ_author_name
"B.Gutschank"
"S.Schulz"
"D.Blaser"
"C.Wolper"
_chemical_name_systematic
;
2-(bis(isopropylamino)methylene)-N,N'-diisopropyl-1,3-bis(isopropylamino)propa
ne-1,3-diiminium tetrachloro-nickel(ii)
;
_cell_volume   6416.503
_exptl_crystal_colour 'pale blue'
_exptl_crystal_density_diffrn 1.236
_exptl_crystal_description 'block'
_diffrn_ambient_temperature 100
#These two values have been output from a single CSD field.
_refine_ls_R_factor_gt 0.0296
_refine_ls_wR_factor_gt 0.0296
_symmetry_cell_setting cubic
_symmetry_space_group_name_H-M 'P a -3'
_symmetry_Int_Tables_number 205
loop_
_symmetry_equiv_pos_site_id
_symmetry_equiv_pos_as_xyz
1 x,y,z
2 1/2-x,-y,1/2+z
3 -x,1/2+y,1/2-z
4 1/2+x,1/2-y,-z
5 z,x,y
6 1/2+z,1/2-x,-y
7 1/2-z,-x,1/2+y
8 -z,1/2+x,1/2-y
9 y,z,x
10 -y,1/2+z,1/2-x
11 1/2+y,1/2-z,-x
12 1/2-y,-z,1/2+x
13 -x,-y,-z
14 -1/2+x,y,-1/2-z
15 x,-1/2-y,-1/2+z
16 -1/2-x,-1/2+y,z
17 -z,-x,-y
18 -1/2-z,-1/2+x,y
19 -1/2+z,x,-1/2-y
20 z,-1/2-x,-1/2+y
21 -y,-z,-x
22 y,-1/2-z,-1/2+x
23 -1/2-y,-1/2+z,x
24 -1/2+y,z,-1/2-x
_cell_length_a 18.5823(18)
_cell_length_b 18.5823(18)
_cell_length_c 18.5823(18)
_cell_angle_alpha 90
_cell_angle_beta 90
_cell_angle_gamma 90
_cell_formula_units_Z 8
loop_
_atom_type_symbol
_atom_type_radius_bond
C 0.68
H 0.23
Cl 0.99
N 0.68
Ni 1.24
loop_
_atom_site_label
_atom_site_type_symbol
_atom_site_fract_x
_atom_site_fract_y
_atom_site_fract_z
Ni1 Ni 0.795517(11) 0.295517(11) 0.204483(11)
Cl1 Cl 0.86494(2) 0.36494(2) 0.13506(2)
Cl2 Cl 0.86388(2) 0.21369(3) 0.26405(2)
N1 N 0.68761(7) 0.02428(7) 0.33358(7)
H1 H 0.71210 -0.00740 0.30060
N2 N 0.66533(7) 0.09647(7) 0.23437(6)
H2 H 0.66450 0.14500 0.21370
C1 C 0.64867(7) 0.14867(7) 0.35133(7)
C2 C 0.66810(7) 0.08824(8) 0.30588(7)
C3 C 0.66684(9) -0.00291(8) 0.40528(8)
H3 H 0.64150 0.03660 0.43160
C4 C 0.73283(10) -0.02474(10) 0.44895(9)
H4 H 0.75900 -0.06280 0.42340
H5 H 0.71750 -0.04260 0.49620
H6 H 0.76430 0.01710 0.45530
C5 C 0.61434(10) -0.06583(9) 0.39642(10)
H7 H 0.57180 -0.04960 0.36980
H8 H 0.59970 -0.08340 0.44400
H9 H 0.63790 -0.10480 0.36980
C6 C 0.67331(9) 0.03844(8) 0.18057(8)
H10 H 0.65350 -0.00710 0.20130
C7 C 0.63025(10) 0.05765(10) 0.11335(9)
H11 H 0.58000 0.06640 0.12660
H12 H 0.63270 0.01780 0.07890
H13 H 0.65050 0.10110 0.09130
C8 C 0.75282(10) 0.02682(10) 0.16254(10)
H14 H 0.77220 0.07020 0.13960
H15 H 0.75760 -0.01410 0.12960
H16 H 0.77960 0.01690 0.20690
Cl2G Cl 0.73595(2) 0.36388(3) 0.28631(2)
Cl2J Cl 0.71369(2) 0.23595(3) 0.13612(2)
N1G N 0.66642(7) 0.18761(7) 0.47572(7)
H1G H 0.69940 0.21210 0.50740
N2G N 0.76563(7) 0.16533(7) 0.40353(6)
H2G H 0.78630 0.16450 0.35500
C2G C 0.69412(7) 0.16810(8) 0.41176(7)
C3G C 0.59472(9) 0.16684(8) 0.50291(8)
H3G H 0.56840 0.14150 0.46340
C4G C 0.55105(10) 0.23283(10) 0.52474(9)
H4G H 0.57660 0.25900 0.56280
H5G H 0.50380 0.21750 0.54260
H6G H 0.54470 0.26430 0.48290
C5G C 0.60358(10) 0.11434(9) 0.56583(10)
H7G H 0.63020 0.07180 0.54960
H8G H 0.55600 0.09970 0.58340
H9G H 0.63020 0.13790 0.60480
C6G C 0.81943(9) 0.17331(8) 0.46156(8)
H10G H 0.79870 0.15350 0.50710
C7G C 0.88665(10) 0.13025(10) 0.44235(9)
H11G H 0.87340 0.08000 0.43360
H12G H 0.92110 0.13270 0.48220
H13G H 0.90870 0.15050 0.39890
C8G C 0.83746(10) 0.25282(10) 0.47318(10)
H14G H 0.86040 0.27220 0.42980
H15G H 0.87040 0.25760 0.51410
H16G H 0.79310 0.27960 0.48310
N1J N 0.52428(7) 0.16642(7) 0.31239(7)
H1J H 0.49260 0.19940 0.28790
N2J N 0.59647(7) 0.26563(7) 0.33467(6)
H2J H 0.64500 0.28630 0.33550
C2J C 0.58824(7) 0.19412(8) 0.33190(7)
C3J C 0.49709(9) 0.09472(8) 0.33316(8)
H3J H 0.53660 0.06840 0.35850
C4J C 0.47526(10) 0.05105(10) 0.26717(9)
H4J H 0.43720 0.07660 0.24100
H5J H 0.45740 0.00380 0.28250
H6J H 0.51710 0.04470 0.23570
C5J C 0.43417(10) 0.10358(9) 0.38566(10)
H7J H 0.45040 0.13020 0.42820
H8J H 0.41660 0.05600 0.40030
H9J H 0.39520 0.13020 0.36210
C6J C 0.53844(9) 0.31943(8) 0.32669(8)
H10J H 0.49290 0.29870 0.34650
C7J C 0.55765(10) 0.38665(10) 0.36975(9)
H11J H 0.56640 0.37340 0.42000
H12J H 0.51780 0.42110 0.36730
H13J H 0.60110 0.40870 0.34950
C8J C 0.52682(10) 0.33746(10) 0.24718(10)
H14J H 0.57020 0.36040 0.22780
H15J H 0.48590 0.37040 0.24240
H16J H 0.51690 0.29310 0.22040
#END

data_CSD_CIF_SOHKEI
_audit_creation_date 2019-05-21
_audit_creation_method CSD-ConQuest-V1
_database_code_CSD SOHKEI
_database_code_depnum_ccdc_archive 'CCDC 1897367'
_chemical_formula_sum 'C78 H72 Co2 N4 P6'
_chemical_formula_moiety
;
C78 H72 Co2 N4 P6
;
_journal_coden_Cambridge 182
_journal_volume 55
_journal_year 2019
_journal_page_first 6579
_journal_name_full 'Chem.Commun. '
loop_
_publ_author_name
"S.L.Apps"
"P.W.Miller"
"N.J.Long"
_chemical_name_systematic
;
(\m-nitrogen)-bis(1-(diphenylphosphanyl)-N,N-bis[(diphenylphosphanyl)methyl]me
thanamine)-di-cobalt
;
_cell_volume   6778.955
_exptl_crystal_colour 'dark red'
_exptl_crystal_density_diffrn 1.341
_exptl_special_details
;
Air-sensitive,Moisture-sensitive,Hygroscopic

;
_exptl_crystal_description 'irregular blocks'
_exptl_crystal_preparation 'Vapour deposition'
_diffrn_ambient_temperature 173
#These two values have been output from a single CSD field.
_refine_ls_R_factor_gt 0.0375
_refine_ls_wR_factor_gt 0.0375
_symmetry_cell_setting cubic
_symmetry_space_group_name_H-M 'P a -3'
_symmetry_Int_Tables_number 205
loop_
_symmetry_equiv_pos_site_id
_symmetry_equiv_pos_as_xyz
1 x,y,z
2 1/2-x,-y,1/2+z
3 -x,1/2+y,1/2-z
4 1/2+x,1/2-y,-z
5 z,x,y
6 1/2+z,1/2-x,-y
7 1/2-z,-x,1/2+y
8 -z,1/2+x,1/2-y
9 y,z,x
10 -y,1/2+z,1/2-x
11 1/2+y,1/2-z,-x
12 1/2-y,-z,1/2+x
13 -x,-y,-z
14 -1/2+x,y,-1/2-z
15 x,-1/2-y,-1/2+z
16 -1/2-x,-1/2+y,z
17 -z,-x,-y
18 -1/2-z,-1/2+x,y
19 -1/2+z,x,-1/2-y
20 z,-1/2-x,-1/2+y
21 -y,-z,-x
22 y,-1/2-z,-1/2+x
23 -1/2-y,-1/2+z,x
24 -1/2+y,z,-1/2-x
_cell_length_a 18.9258(1)
_cell_length_b 18.9258(1)
_cell_length_c 18.9258(1)
_cell_angle_alpha 90
_cell_angle_beta 90
_cell_angle_gamma 90
_cell_formula_units_Z 4
loop_
_atom_type_symbol
_atom_type_radius_bond
C 0.68
H 0.23
Co 1.26
N 0.68
P 1.05
loop_
_atom_site_label
_atom_site_type_symbol
_atom_site_fract_x
_atom_site_fract_y
_atom_site_fract_z
Co1 Co 0.92901(2) 0.57099(2) 0.42901(2)
P1 P 0.89620(3) 0.53907(3) 0.32493(3)
N1 N 0.98288(9) 0.51712(9) 0.48288(9)
N2 N 0.82846(9) 0.67154(9) 0.32846(9)
C1 C 0.96389(12) 0.50647(12) 0.26324(12)
C2 C 0.83125(11) 0.46798(11) 0.31146(12)
C3 C 0.85397(12) 0.61692(11) 0.27998(11)
H1 H 0.88808 0.63793 0.24802
H2 H 0.81454 0.60023 0.25181
C4 C 0.73925(13) 0.35443(13) 0.29253(15)
H3 H 0.70854 0.31657 0.28629
C5 C 0.97111(15) 0.52566(15) 0.19319(13)
H4 H 0.93932 0.55726 0.17303
C6 C 1.01177(13) 0.45807(13) 0.29107(13)
H5 H 1.00739 0.44417 0.33799
C7 C 0.75432(13) 0.39877(13) 0.23641(14)
H6 H 0.73392 0.39061 0.19245
C8 C 0.76974(14) 0.36624(12) 0.35790(14)
H7 H 0.75925 0.33662 0.39567
C9 C 0.81629(13) 0.42271(12) 0.36704(13)
H8 H 0.83743 0.43002 0.41079
C10 C 0.79974(13) 0.45521(13) 0.24573(13)
H9 H 0.80949 0.48505 0.20792
C11 C 1.06547(14) 0.43035(14) 0.25056(16)
H10 H 1.09688 0.39808 0.27022
C12 C 1.02578(17) 0.49786(17) 0.15274(15)
H11 H 1.03058 0.51168 0.10583
C13 C 1.07277(15) 0.45038(16) 0.18090(16)
H12 H 1.10905 0.43194 0.15336
P1E P 0.82493(3) 0.60380(3) 0.46093(3)
C1E C 0.76324(12) 0.53611(12) 0.49353(12)
C2E C 0.81146(11) 0.66875(11) 0.53202(12)
C3E C 0.77998(12) 0.64603(11) 0.38308(11)
H1E H 0.74802 0.61192 0.36207
H2E H 0.75181 0.68546 0.39977
C4E C 0.79253(13) 0.76075(13) 0.64557(15)
H3E H 0.78629 0.79146 0.68342
C5E C 0.69319(15) 0.52889(15) 0.47434(13)
H4E H 0.67303 0.56068 0.44274
C6E C 0.79107(13) 0.48823(13) 0.54193(13)
H5E H 0.83799 0.49261 0.55583
C7E C 0.73641(13) 0.74568(13) 0.60123(14)
H6E H 0.69245 0.76608 0.60939
C8E C 0.85790(14) 0.73026(12) 0.63376(14)
H7E H 0.89567 0.74075 0.66338
C9E C 0.86704(13) 0.68371(12) 0.57729(13)
H8E H 0.91079 0.66257 0.56998
C10E C 0.74573(13) 0.70026(13) 0.54479(13)
H9E H 0.70792 0.69051 0.51495
C11E C 0.75056(14) 0.43453(14) 0.56965(16)
H10E H 0.77022 0.40312 0.60192
C12E C 0.65274(17) 0.47422(17) 0.50214(15)
H11E H 0.60583 0.46942 0.48832
C13E C 0.68090(15) 0.42723(16) 0.54962(16)
H12E H 0.65336 0.39095 0.56806
P1K P 0.96093(3) 0.67507(3) 0.39620(3)
C1K C 0.99353(12) 0.73676(12) 0.46389(12)
C2K C 1.03202(11) 0.68854(11) 0.33125(12)
C3K C 0.88308(12) 0.72002(11) 0.35397(11)
H1K H 0.86207 0.75198 0.38808
H2K H 0.89977 0.74819 0.31454
C4K C 1.14557(13) 0.70747(13) 0.23925(15)
H3K H 1.18342 0.71371 0.20854
C5K C 0.97434(15) 0.80681(15) 0.47111(13)
H4K H 0.94274 0.82697 0.43932
C6K C 1.04193(13) 0.70893(13) 0.51177(13)
H5K H 1.05583 0.66201 0.50739
C7K C 1.10123(13) 0.76359(13) 0.25432(14)
H6K H 1.10939 0.80755 0.23392
C8K C 1.13376(14) 0.64210(12) 0.26974(14)
H7K H 1.16338 0.60433 0.25925
C9K C 1.07729(13) 0.63296(12) 0.31629(13)
H8K H 1.06998 0.58921 0.33743
C10K C 1.04479(13) 0.75427(13) 0.29974(13)
H9K H 1.01495 0.79208 0.30949
C11K C 1.06965(14) 0.74944(14) 0.56547(16)
H10K H 1.10192 0.72978 0.59688
C12K C 1.00214(17) 0.84726(17) 0.52578(15)
H11K H 0.98832 0.89417 0.53058
C13K C 1.04962(15) 0.81910(16) 0.57277(16)
H12K H 1.06806 0.84664 0.60905
N1L N 1.01712(9) 0.48288(9) 0.51712(9)
Co1L Co 1.07099(2) 0.42901(2) 0.57099(2)
P1L P 1.10380(3) 0.46093(3) 0.67507(3)
N2L N 1.17154(9) 0.32846(9) 0.67154(9)
C1L C 1.03611(12) 0.49353(12) 0.73676(12)
C2L C 1.16875(11) 0.53202(11) 0.68854(12)
C3L C 1.14603(12) 0.38308(11) 0.72002(11)
H1L H 1.11192 0.36207 0.75198
H2L H 1.18546 0.39977 0.74819
C4L C 1.26075(13) 0.64557(13) 0.70747(15)
H3L H 1.29146 0.68342 0.71371
C5L C 1.02889(15) 0.47434(15) 0.80681(13)
H4L H 1.06068 0.44274 0.82697
C6L C 0.98823(13) 0.54193(13) 0.70893(13)
H5L H 0.99261 0.55583 0.66201
C7L C 1.24568(13) 0.60123(13) 0.76359(14)
H6L H 1.26608 0.60939 0.80755
C8L C 1.23026(14) 0.63376(12) 0.64210(14)
H7L H 1.24075 0.66338 0.60433
C9L C 1.18371(13) 0.57729(12) 0.63296(13)
H8L H 1.16257 0.56998 0.58921
C10L C 1.20026(13) 0.54479(13) 0.75427(13)
H9L H 1.19051 0.51495 0.79208
C11L C 0.93453(14) 0.56965(14) 0.74944(16)
H10L H 0.90312 0.60192 0.72978
C12L C 0.97422(17) 0.50214(17) 0.84726(15)
H11L H 0.96942 0.48832 0.89417
C13L C 0.92723(15) 0.54962(16) 0.81910(16)
H12L H 0.89095 0.56806 0.84664
P1Q P 1.17507(3) 0.39620(3) 0.53907(3)
C1Q C 1.23676(12) 0.46389(12) 0.50647(12)
C2Q C 1.18854(11) 0.33125(11) 0.46798(12)
C3Q C 1.22002(12) 0.35397(11) 0.61692(11)
H1Q H 1.25198 0.38808 0.63793
H2Q H 1.24819 0.31454 0.60023
C4Q C 1.20747(13) 0.23925(13) 0.35443(15)
H3Q H 1.21371 0.20854 0.31657
C5Q C 1.30681(15) 0.47111(15) 0.52566(13)
H4Q H 1.32697 0.43932 0.55726
C6Q C 1.20893(13) 0.51177(13) 0.45807(13)
H5Q H 1.16201 0.50739 0.44417
C7Q C 1.26359(13) 0.25432(13) 0.39877(14)
H6Q H 1.30755 0.23392 0.39061
C8Q C 1.14210(14) 0.26974(12) 0.36624(14)
H7Q H 1.10433 0.25925 0.33662
C9Q C 1.13296(13) 0.31629(12) 0.42271(13)
H8Q H 1.08921 0.33743 0.43002
C10Q C 1.25427(13) 0.29974(13) 0.45521(13)
H9Q H 1.29208 0.30949 0.48505
C11Q C 1.24944(14) 0.56547(14) 0.43035(16)
H10Q H 1.22978 0.59688 0.39808
C12Q C 1.34726(17) 0.52578(17) 0.49786(15)
H11Q H 1.39417 0.53058 0.51168
C13Q C 1.31910(15) 0.57277(16) 0.45038(16)
H12Q H 1.34664 0.60905 0.43194
P1W P 1.03907(3) 0.32493(3) 0.60380(3)
C1W C 1.00647(12) 0.26324(12) 0.53611(12)
C2W C 0.96798(11) 0.31146(11) 0.66875(12)
C3W C 1.11692(12) 0.27998(11) 0.64603(11)
H1W H 1.13793 0.24802 0.61192
H2W H 1.10023 0.25181 0.68546
C4W C 0.85443(13) 0.29253(13) 0.76075(15)
H3W H 0.81658 0.28629 0.79146
C5W C 1.02566(15) 0.19319(15) 0.52889(13)
H4W H 1.05726 0.17303 0.56068
C6W C 0.95807(13) 0.29107(13) 0.48823(13)
H5W H 0.94417 0.33799 0.49261
C7W C 0.89877(13) 0.23641(13) 0.74568(14)
H6W H 0.89061 0.19245 0.76608
C8W C 0.86624(14) 0.35790(12) 0.73026(14)
H7W H 0.83662 0.39567 0.74075
C9W C 0.92271(13) 0.36704(12) 0.68371(13)
H8W H 0.93002 0.41079 0.66257
C10W C 0.95521(13) 0.24573(13) 0.70026(13)
H9W H 0.98505 0.20792 0.69051
C11W C 0.93035(14) 0.25056(14) 0.43453(16)
H10W H 0.89808 0.27022 0.40312
C12W C 0.99786(17) 0.15274(17) 0.47422(15)
H11W H 1.01168 0.10583 0.46942
C13W C 0.95038(15) 0.18090(16) 0.42723(16)
H12W H 0.93194 0.15336 0.39095
#END

data_CSD_CIF_SOPHUD
_audit_creation_date 2019-09-13
_audit_creation_method CSD-ConQuest-V1
_database_code_CSD SOPHUD
_database_code_depnum_ccdc_archive 'CCDC 1953444'
_chemical_formula_sum 'C12 H19 Co1 N3 O6.5'
_chemical_formula_moiety
;
C12 H18 Co1 N3 O6,0.5(H2 O1)
;
_journal_coden_Cambridge 1078
_journal_year 2019
_journal_name_full 'CSD Communication(Private Communication) '
loop_
_publ_author_name
"R.Rogers"
_chemical_name_systematic
;
(2,2',2''-(cyclohexane-1,3,5-triyltris(azanediyl))tris(acetato))-cobalt(iii) 
hemihydrate
;
_cell_volume   2742.236
_exptl_crystal_colour 'red'
_exptl_crystal_description 'plate'
_diffrn_ambient_temperature 173
#These two values have been output from a single CSD field.
_refine_ls_R_factor_gt 0.0246
_refine_ls_wR_factor_gt 0.0246
_symmetry_cell_setting cubic
_symmetry_space_group_name_H-M 'P a -3'
_symmetry_Int_Tables_number 205
loop_
_symmetry_equiv_pos_site_id
_symmetry_equiv_pos_as_xyz
1 x,y,z
2 1/2-x,-y,1/2+z
3 -x,1/2+y,1/2-z
4 1/2+x,1/2-y,-z
5 z,x,y
6 1/2+z,1/2-x,-y
7 1/2-z,-x,1/2+y
8 -z,1/2+x,1/2-y
9 y,z,x
10 -y,1/2+z,1/2-x
11 1/2+y,1/2-z,-x
12 1/2-y,-z,1/2+x
13 -x,-y,-z
14 -1/2+x,y,-1/2-z
15 x,-1/2-y,-1/2+z
16 -1/2-x,-1/2+y,z
17 -z,-x,-y
18 -1/2-z,-1/2+x,y
19 -1/2+z,x,-1/2-y
20 z,-1/2-x,-1/2+y
21 -y,-z,-x
22 y,-1/2-z,-1/2+x
23 -1/2-y,-1/2+z,x
24 -1/2+y,z,-1/2-x
_cell_length_a 13.997(2)
_cell_length_b 13.997(2)
_cell_length_c 13.997(2)
_cell_angle_alpha 90
_cell_angle_beta 90
_cell_angle_gamma 90
_cell_formula_units_Z 8
loop_
_atom_type_symbol
_atom_type_radius_bond
C 0.68
H 0.23
Co 1.26
N 0.68
O 0.68
loop_
_atom_site_label
_atom_site_type_symbol
_atom_site_fract_x
_atom_site_fract_y
_atom_site_fract_z
Co1 Co 0.20503(2) 0.70503(2) 0.79497(2)
O1 O 0.19624(12) 0.71678(11) 0.65926(11)
O2 O 0.18537(13) 0.63120(12) 0.52549(12)
N1 N 0.19271(15) 0.56818(15) 0.77602(14)
H1 H 0.2487(18) 0.5481(17) 0.7906(16)
C1 C 0.12573(18) 0.51708(19) 0.84200(18)
H2 H 0.1226(15) 0.4517(17) 0.8244(15)
C2 C 0.0244(2) 0.55700(19) 0.8353(2)
H3 H 0.0028(16) 0.5545(15) 0.7720(17)
H4 H -0.0142(17) 0.5137(16) 0.8746(16)
C3 C 0.1748(2) 0.54861(19) 0.67318(19)
H5 H 0.1112(18) 0.5271(17) 0.6644(16)
H6 H 0.2169(15) 0.4916(18) 0.6499(16)
C4 C 0.18667(18) 0.63784(19) 0.61331(19)
O3 O 0.00000 0.50000 0.50000
O1G O 0.34074(12) 0.69624(11) 0.78322(11)
O2G O 0.47451(13) 0.68537(12) 0.86880(12)
N1G N 0.22398(15) 0.69271(15) 0.93182(14)
H1G H 0.2094(18) 0.7487(17) 0.9519(16)
C1G C 0.15800(18) 0.62573(19) 0.98292(18)
H2G H 0.1756(15) 0.6226(17) 1.0483(15)
C2G C 0.1647(2) 0.52440(19) 0.9430(2)
H3G H 0.2280(16) 0.5028(15) 0.9455(17)
H4G H 0.1254(17) 0.4858(16) 0.9863(16)
C3G C 0.32682(20) 0.67480(19) 0.95139(19)
H5G H 0.3356(18) 0.6112(17) 0.9729(16)
H6G H 0.3501(15) 0.7169(18) 1.0084(16)
C4G C 0.38669(18) 0.68667(19) 0.86216(19)
O1J O 0.21678(12) 0.84074(11) 0.80376(11)
O2J O 0.13120(13) 0.97451(12) 0.81463(12)
N1J N 0.06818(15) 0.72398(15) 0.80729(14)
H1J H 0.0481(18) 0.7094(17) 0.7513(16)
C1J C 0.01708(18) 0.65800(19) 0.87427(18)
H2J H -0.0483(15) 0.6756(17) 0.8774(15)
C2J C 0.0570(2) 0.66470(19) 0.9756(2)
H3J H 0.0545(16) 0.7280(15) 0.9972(17)
H4J H 0.0137(17) 0.6254(16) 1.0142(16)
C3J C 0.04861(20) 0.82682(19) 0.82520(19)
H5J H 0.0271(18) 0.8356(17) 0.8888(16)
H6J H -0.0084(15) 0.8501(18) 0.7831(16)
C4J C 0.13784(18) 0.88669(19) 0.81333(19)
#END

data_CSD_CIF_TEQLOQ
_audit_creation_date 1997-02-21
_audit_creation_method CSD-ConQuest-V1
_database_code_CSD TEQLOQ
_chemical_formula_sum 'C33 H42 Ni3 S6'
_chemical_formula_moiety
;
C33 H42 Ni3 S6
;
_journal_coden_Cambridge 4
_journal_volume 118
_journal_year 1996
_journal_page_first 5368
_journal_name_full 'J.Am.Chem.Soc. '
loop_
_publ_author_name
"D.Sellmann"
"D.Haussinger"
"F.Knoch"
"M.Moll"
_chemical_name_systematic
;
tris((\m~2~-1-(2-Mercaptophenylthio)-2,2-dimethylpropyl)-nickel)
;
_cell_volume   7151.130
_exptl_crystal_colour 'red'
_exptl_crystal_density_diffrn 1.5
_diffrn_ambient_temperature ?
_diffrn_special_details
;
The study was carried out at room temperature,in the range 283-303K

;
#These two values have been output from a single CSD field.
_refine_ls_R_factor_gt 0.043
_refine_ls_wR_factor_gt 0.043
_symmetry_cell_setting cubic
_symmetry_space_group_name_H-M 'P a 3'
_symmetry_Int_Tables_number 205
loop_
_symmetry_equiv_pos_site_id
_symmetry_equiv_pos_as_xyz
1 x,y,z
2 1/2-x,-y,1/2+z
3 1/2+x,1/2-y,-z
4 z,x,y
5 -x,1/2+y,1/2-z
6 1/2-z,-x,1/2+y
7 1/2+z,1/2-x,-y
8 -z,1/2+x,1/2-y
9 y,z,x
10 1/2+y,1/2-z,-x
11 -y,1/2+z,1/2-x
12 1/2-y,-z,1/2+x
13 -x,-y,-z
14 -1/2+x,y,-1/2-z
15 -1/2-x,-1/2+y,z
16 -z,-x,-y
17 x,-1/2-y,-1/2+z
18 -1/2+z,x,-1/2-y
19 -1/2-z,-1/2+x,y
20 z,-1/2-x,-1/2+y
21 -y,-z,-x
22 -1/2-y,-1/2+z,x
23 y,-1/2-z,-1/2+x
24 -1/2+y,z,-1/2-x
_cell_length_a 19.266(3)
_cell_length_b 19.266(3)
_cell_length_c 19.266(3)
_cell_angle_alpha 90
_cell_angle_beta 90
_cell_angle_gamma 90
_cell_formula_units_Z 8
loop_
_atom_type_symbol
_atom_type_radius_bond
C 0.68
H 0.23
Ni 1.30
S 1.02
loop_
_atom_site_label
_atom_site_type_symbol
_atom_site_fract_x
_atom_site_fract_y
_atom_site_fract_z
Ni1 Ni 0.3036(1) 0.1643(1) 0.2488(1)
S1 S 0.2738(1) 0.1958(1) 0.1382(1)
S2 S 0.4049(1) 0.2041(1) 0.2284(1)
C1 C 0.4171(3) 0.1845(3) 0.1393(3)
C2 C 0.4810(3) 0.1712(3) 0.1097(3)
C3 C 0.4846(3) 0.1580(3) 0.0395(3)
C4 C 0.4264(4) 0.1619(3) -0.0018(4)
C5 C 0.3628(3) 0.1762(3) 0.0282(3)
C6 C 0.3568(3) 0.1859(3) 0.0991(3)
C7 C 0.4597(3) 0.1438(3) 0.2748(3)
C8 C 0.4219(3) 0.1284(3) 0.3423(3)
C9 C 0.3456(3) 0.1123(3) 0.3248(3)
C10 C 0.4570(4) 0.0662(3) 0.3778(3)
C11 C 0.4263(4) 0.1911(4) 0.3905(3)
H1 H 0.52250 0.17180 0.13720
H2 H 0.52830 0.14560 0.01900
H3 H 0.43020 0.15510 -0.05100
H4 H 0.32230 0.17860 -0.00080
H5 H 0.50430 0.16390 0.28410
H6 H 0.46550 0.10190 0.24850
H7 H 0.34250 0.06390 0.31370
H8 H 0.31900 0.12180 0.36590
H9 H 0.43340 0.05620 0.42050
H10 H 0.50470 0.07730 0.38740
H11 H 0.45490 0.02640 0.34790
H12 H 0.40480 0.23070 0.36940
H13 H 0.47420 0.20130 0.40000
H14 H 0.40290 0.18030 0.43320
Ni1C Ni 0.2488(1) 0.3036(1) 0.1643(1)
S1C S 0.1382(1) 0.2738(1) 0.1958(1)
Ni1H Ni 0.1643(1) 0.2488(1) 0.3036(1)
S1H S 0.1958(1) 0.1382(1) 0.2738(1)
C6H C 0.1859(3) 0.0991(3) 0.3568(3)
C1H C 0.1845(3) 0.1393(3) 0.4171(3)
S2H S 0.2041(1) 0.2284(1) 0.4049(1)
C9H C 0.1123(3) 0.3248(3) 0.3456(3)
C8H C 0.1284(3) 0.3423(3) 0.4219(3)
C7H C 0.1438(3) 0.2748(3) 0.4597(3)
H5H H 0.16390 0.28410 0.50430
H6H H 0.10190 0.24850 0.46550
C10H C 0.0662(4) 0.3778(3) 0.4570(3)
H9H H 0.05620 0.42050 0.43340
H10H H 0.07730 0.38740 0.50470
H11H H 0.02640 0.34790 0.45490
C11H C 0.1911(4) 0.3905(4) 0.4263(3)
H12H H 0.23070 0.36940 0.40480
H13H H 0.20130 0.40000 0.47420
H14H H 0.18030 0.43320 0.40290
H7H H 0.06390 0.31370 0.34250
H8H H 0.12180 0.36590 0.31900
C2H C 0.1712(3) 0.1097(3) 0.4810(3)
C3H C 0.1580(3) 0.0395(3) 0.4846(3)
C4H C 0.1619(4) -0.0018(3) 0.4264(4)
C5H C 0.1762(3) 0.0282(3) 0.3628(3)
H4H H 0.17860 -0.00080 0.32230
H3H H 0.15510 -0.05100 0.43020
H2H H 0.14560 0.01900 0.52830
H1H H 0.17180 0.13720 0.52250
C6C C 0.0991(3) 0.3568(3) 0.1859(3)
C1C C 0.1393(3) 0.4171(3) 0.1845(3)
S2C S 0.2284(1) 0.4049(1) 0.2041(1)
C9C C 0.3248(3) 0.3456(3) 0.1123(3)
C8C C 0.3423(3) 0.4219(3) 0.1284(3)
C7C C 0.2748(3) 0.4597(3) 0.1438(3)
H5C H 0.28410 0.50430 0.16390
H6C H 0.24850 0.46550 0.10190
C10C C 0.3778(4) 0.4570(3) 0.0662(3)
H9C H 0.42050 0.43340 0.05620
H10C H 0.38740 0.50470 0.07730
H11C H 0.34790 0.45490 0.02640
C11C C 0.3905(4) 0.4263(4) 0.1911(3)
H12C H 0.36940 0.40480 0.23070
H13C H 0.40000 0.47420 0.20130
H14C H 0.43320 0.40290 0.18030
H7C H 0.31370 0.34250 0.06390
H8C H 0.36590 0.31900 0.12180
C2C C 0.1097(3) 0.4810(3) 0.1712(3)
C3C C 0.0395(3) 0.4846(3) 0.1580(3)
C4C C -0.0018(4) 0.4264(3) 0.1619(4)
C5C C 0.0282(3) 0.3628(3) 0.1762(3)
H4C H -0.00080 0.32230 0.17860
H3C H -0.05100 0.43020 0.15510
H2C H 0.01900 0.52830 0.14560
H1C H 0.13720 0.52250 0.17180
#END

data_CSD_CIF_TITQOE
_audit_creation_date 2014-02-17
_audit_creation_method CSD-ConQuest-V1
_database_code_CSD TITQOE
_database_code_depnum_ccdc_archive 'CCDC 966656'
_chemical_formula_sum 'C45 H51 Cr1 Fe1 I1 N3 P3'
_chemical_formula_moiety
;
C45 H51 Cr1 Fe1 I1 N3 P3
;
_journal_coden_Cambridge 1475
_journal_volume 5
_journal_year 2014
_journal_page_first 1617
_journal_name_full 'Chemical Science '
loop_
_publ_author_name
"S.Kuppuswamy"
"M.W.Bezpalko"
"T.M.Powers"
"M.J.T.Wilding"
"C.K.Brozek"
"B.M.Foxman"
"C.M.Thomas"
_chemical_name_systematic
;
tris(\m~2~-(N-Isopropyl-P,P-diphenylphosphinous amidato))-iodo-chromium-iron
;
_cell_volume   8826.878
_exptl_crystal_colour 'brown'
_exptl_crystal_density_diffrn 1.447
_exptl_special_details
;
Air-sensitive, Moisture-sensitive, Oxygen-sensitive

;
_exptl_crystal_description 'prism'
_diffrn_ambient_temperature 120
#These two values have been output from a single CSD field.
_refine_ls_R_factor_gt 0.0368
_refine_ls_wR_factor_gt 0.0368
_symmetry_cell_setting cubic
_symmetry_space_group_name_H-M 'P a -3'
_symmetry_Int_Tables_number 205
loop_
_symmetry_equiv_pos_site_id
_symmetry_equiv_pos_as_xyz
1 x,y,z
2 y,z,x
3 z,x,y
4 1/2-x,-y,1/2+z
5 1/2-y,-z,1/2+x
6 1/2-z,-x,1/2+y
7 1/2+y,1/2-z,-x
8 1/2+z,1/2-x,-y
9 -z,1/2+x,1/2-y
10 -x,1/2+y,1/2-z
11 -y,1/2+z,1/2-x
12 1/2+x,1/2-y,-z
13 -x,-y,-z
14 -y,-z,-x
15 -z,-x,-y
16 -1/2+x,y,-1/2-z
17 -1/2+y,z,-1/2-x
18 -1/2+z,x,-1/2-y
19 -1/2-y,-1/2+z,x
20 -1/2-z,-1/2+x,y
21 z,-1/2-x,-1/2+y
22 x,-1/2-y,-1/2+z
23 y,-1/2-z,-1/2+x
24 -1/2-x,-1/2+y,z
_cell_length_a 20.6666(3)
_cell_length_b 20.6666(3)
_cell_length_c 20.6666(3)
_cell_angle_alpha 90
_cell_angle_beta 90
_cell_angle_gamma 90
_cell_formula_units_Z 8
loop_
_atom_type_symbol
_atom_type_radius_bond
C 0.68
H 0.23
Cr 1.39
Fe 1.52
I 1.40
N 0.68
P 1.05
loop_
_atom_site_label
_atom_site_type_symbol
_atom_site_fract_x
_atom_site_fract_y
_atom_site_fract_z
Fe1 Fe 0.827594(19) 0.327594(19) 0.172406(19)
Cr1 Cr 0.89379(2) 0.39379(2) 0.10621(2)
I1 I 0.75590(1) 0.25590(1) 0.24410(1)
P1 P 0.83530(4) 0.28585(4) 0.07100(4)
N1 N 0.87704(11) 0.34359(11) 0.03250(11)
C1 C 0.76153(14) 0.26506(14) 0.02647(15)
C2 C 0.76199(17) 0.24180(16) -0.03662(16)
C3 C 0.70451(19) 0.22885(18) -0.06851(19)
C4 C 0.64615(18) 0.23832(17) -0.0374(2)
C5 C 0.64451(16) 0.25946(16) 0.0256(2)
C6 C 0.70253(15) 0.27329(15) 0.05747(17)
C7 C 0.88201(14) 0.21095(14) 0.06729(14)
C8 C 0.94946(14) 0.21225(15) 0.06640(14)
C9 C 0.98442(15) 0.15514(15) 0.07150(15)
C10 C 0.95267(15) 0.09665(15) 0.07794(14)
C11 C 0.88562(16) 0.09514(15) 0.08022(15)
C12 C 0.85059(15) 0.15192(14) 0.07496(15)
C13 C 0.90225(17) 0.42520(16) -0.04975(16)
C14 C 0.88284(16) 0.35510(15) -0.03834(15)
C15 C 0.93051(19) 0.30964(17) -0.06924(17)
H1 H 0.80150 0.23410 -0.05720
H2 H 0.70600 0.21370 -0.11160
H3 H 0.60740 0.23030 -0.05910
H4 H 0.60490 0.26380 0.04790
H5 H 0.70220 0.28720 0.10020
H6 H 0.97060 0.25160 0.06230
H7 H 1.02950 0.15660 0.07210
H8 H 0.97600 0.05830 0.08050
H9 H 0.86490 0.05520 0.08510
H10 H 0.80530 0.15020 0.07660
H11 H 0.87180 0.45570 -0.02820
H12 H 0.94650 0.43200 -0.03020
H13 H 0.90340 0.43440 -0.09670
H14 H 0.84060 0.34840 -0.06100
H15 H 0.91810 0.26460 -0.06030
H16 H 0.97380 0.32050 -0.05040
H17 H 0.92930 0.31810 -0.11620
P1F P 0.78585(4) 0.42900(4) 0.16470(4)
N1F N 0.84359(11) 0.46750(11) 0.12296(11)
C1F C 0.76506(14) 0.47353(14) 0.23847(15)
C2F C 0.74180(17) 0.53662(16) 0.23801(16)
C3F C 0.72885(19) 0.56851(18) 0.29549(19)
C4F C 0.73832(18) 0.53740(17) 0.35385(20)
C5F C 0.75946(16) 0.47440(16) 0.35549(20)
C6F C 0.77329(15) 0.44253(15) 0.29747(17)
C7F C 0.71095(14) 0.43271(14) 0.11799(14)
C8F C 0.71225(14) 0.43360(15) 0.05054(14)
C9F C 0.65514(15) 0.42850(15) 0.01558(15)
C10F C 0.59665(15) 0.42206(15) 0.04733(14)
C11F C 0.59514(16) 0.41978(15) 0.11438(15)
C12F C 0.65192(15) 0.42504(14) 0.14941(15)
C13F C 0.92520(17) 0.54975(16) 0.09775(16)
C14F C 0.85510(16) 0.53834(15) 0.11716(15)
C15F C 0.80964(19) 0.56924(17) 0.06949(17)
H1F H 0.73410 0.55720 0.19850
H2F H 0.71370 0.61160 0.29400
H3F H 0.73030 0.55910 0.39260
H4F H 0.76380 0.45210 0.39510
H5F H 0.78720 0.39980 0.29780
H6F H 0.75160 0.43770 0.02940
H7F H 0.65660 0.42790 -0.02950
H8F H 0.55830 0.41950 0.02400
H9F H 0.55520 0.41490 0.13510
H10F H 0.65020 0.42340 0.19470
H11F H 0.95570 0.52820 0.12820
H12F H 0.93200 0.53020 0.05350
H13F H 0.93440 0.59670 0.09660
H14F H 0.84840 0.56100 0.15940
H15F H 0.76460 0.56030 0.08190
H16F H 0.82050 0.55040 0.02620
H17F H 0.81810 0.61620 0.07070
P1H P 0.92900(4) 0.33530(4) 0.21415(4)
N1H N 0.96750(11) 0.37704(11) 0.15641(11)
C1H C 0.97353(14) 0.26153(14) 0.23494(15)
C2H C 1.03662(17) 0.26199(16) 0.25820(16)
C3H C 1.06851(19) 0.20451(18) 0.27115(19)
C4H C 1.03740(18) 0.14615(17) 0.26168(20)
C5H C 0.97440(16) 0.14451(16) 0.24054(20)
C6H C 0.94253(15) 0.20253(15) 0.22671(17)
C7H C 0.93271(14) 0.38201(14) 0.28905(14)
C8H C 0.93360(14) 0.44946(15) 0.28775(14)
C9H C 0.92850(15) 0.48442(15) 0.34486(15)
C10H C 0.92206(15) 0.45267(15) 0.40335(14)
C11H C 0.91978(16) 0.38562(15) 0.40486(15)
C12H C 0.92504(15) 0.35059(14) 0.34808(15)
C13H C 1.04975(17) 0.40225(16) 0.07480(16)
C14H C 1.03834(16) 0.38284(15) 0.14490(15)
C15H C 1.06924(19) 0.43051(17) 0.19036(17)
H1H H 1.05720 0.30150 0.26590
H2H H 1.11160 0.20600 0.28630
H3H H 1.05910 0.10740 0.26970
H4H H 0.95210 0.10490 0.23620
H5H H 0.89980 0.20220 0.21280
H6H H 0.93770 0.47060 0.24840
H7H H 0.92790 0.52950 0.34340
H8H H 0.91950 0.47600 0.44170
H9H H 0.91490 0.36490 0.44480
H10H H 0.92340 0.30530 0.34980
H11H H 1.02820 0.37180 0.04430
H12H H 1.03020 0.44650 0.06800
H13H H 1.09670 0.40340 0.06560
H14H H 1.06100 0.34060 0.15160
H15H H 1.06030 0.41810 0.23540
H16H H 1.05040 0.47380 0.17950
H17H H 1.11620 0.42930 0.18190
#END

data_CSD_CIF_TITQUK
_audit_creation_date 2014-02-17
_audit_creation_method CSD-ConQuest-V1
_database_code_CSD TITQUK
_database_code_depnum_ccdc_archive 'CCDC 966657'
_chemical_formula_sum 'C45 H51 Co1 Cr1 I1 N3 P3'
_chemical_formula_moiety
;
C45 H51 Co1 Cr1 I1 N3 P3
;
_journal_coden_Cambridge 1475
_journal_volume 5
_journal_year 2014
_journal_page_first 1617
_journal_name_full 'Chemical Science '
loop_
_publ_author_name
"S.Kuppuswamy"
"M.W.Bezpalko"
"T.M.Powers"
"M.J.T.Wilding"
"C.K.Brozek"
"B.M.Foxman"
"C.M.Thomas"
_chemical_name_systematic
;
tris(\m~2~-(N-Isopropyl-P,P-diphenylphosphinous amidato))-iodo-cobalt-chromium
;
_cell_volume   8839.954
_exptl_crystal_colour 'brown'
_exptl_crystal_density_diffrn 1.45
_exptl_special_details
;
Air-sensitive, Moisture-sensitive, Oxygen-sensitive

;
_exptl_crystal_description 'prism'
_diffrn_ambient_temperature 120
#These two values have been output from a single CSD field.
_refine_ls_R_factor_gt 0.0295
_refine_ls_wR_factor_gt 0.0295
_symmetry_cell_setting cubic
_symmetry_space_group_name_H-M 'P a -3'
_symmetry_Int_Tables_number 205
loop_
_symmetry_equiv_pos_site_id
_symmetry_equiv_pos_as_xyz
1 x,y,z
2 y,z,x
3 z,x,y
4 1/2-x,-y,1/2+z
5 1/2-y,-z,1/2+x
6 1/2-z,-x,1/2+y
7 1/2+y,1/2-z,-x
8 1/2+z,1/2-x,-y
9 -z,1/2+x,1/2-y
10 -x,1/2+y,1/2-z
11 -y,1/2+z,1/2-x
12 1/2+x,1/2-y,-z
13 -x,-y,-z
14 -y,-z,-x
15 -z,-x,-y
16 -1/2+x,y,-1/2-z
17 -1/2+y,z,-1/2-x
18 -1/2+z,x,-1/2-y
19 -1/2-y,-1/2+z,x
20 -1/2-z,-1/2+x,y
21 z,-1/2-x,-1/2+y
22 x,-1/2-y,-1/2+z
23 y,-1/2-z,-1/2+x
24 -1/2-x,-1/2+y,z
_cell_length_a 20.6768(2)
_cell_length_b 20.6768(2)
_cell_length_c 20.6768(2)
_cell_angle_alpha 90
_cell_angle_beta 90
_cell_angle_gamma 90
_cell_formula_units_Z 8
loop_
_atom_type_symbol
_atom_type_radius_bond
C 0.68
H 0.23
Co 1.26
Cr 1.39
I 1.40
N 0.68
P 1.05
loop_
_atom_site_label
_atom_site_type_symbol
_atom_site_fract_x
_atom_site_fract_y
_atom_site_fract_z
Co1 Co 0.318658(11) 0.318658(11) 0.318658(11)
Cr1 Cr 0.393519(14) 0.393519(14) 0.393519(14)
I1 I 0.247602(6) 0.247602(6) 0.247602(6)
P1 P 0.41935(2) 0.33682(2) 0.27891(2)
N1 N 0.46020(7) 0.38237(7) 0.33260(7)
C1 C 0.46386(9) 0.26329(9) 0.25829(9)
C2 C 0.52777(11) 0.26353(11) 0.23606(11)
C3 C 0.55961(11) 0.20583(12) 0.22404(13)
C4 C 0.52786(12) 0.14735(11) 0.23301(12)
C5 C 0.46382(12) 0.14642(10) 0.25185(10)
C6 C 0.43213(10) 0.20447(9) 0.26510(9)
C7 C 0.42140(9) 0.38151(9) 0.20307(9)
C8 C 0.42108(9) 0.44905(9) 0.20337(9)
C9 C 0.41732(10) 0.48332(10) 0.14595(10)
C10 C 0.41337(10) 0.45094(11) 0.08755(10)
C11 C 0.41281(10) 0.38381(10) 0.08657(10)
C12 C 0.41672(9) 0.34922(10) 0.14401(9)
C13 C 0.52545(9) 0.40972(9) 0.32311(10)
C14 C 0.57661(10) 0.36915(11) 0.35719(11)
C15 C 0.52807(11) 0.47887(11) 0.34801(12)
H1 H 0.54800 0.30290 0.22840
H2 H 0.60210 0.20730 0.21020
H3 H 0.54960 0.10820 0.22560
H4 H 0.44240 0.10690 0.25680
H5 H 0.38900 0.20390 0.27910
H6 H 0.42320 0.47150 0.24290
H7 H 0.41710 0.52830 0.14690
H8 H 0.41130 0.47430 0.04930
H9 H 0.41040 0.36230 0.04780
H10 H 0.41640 0.30370 0.14300
H11 H 0.53400 0.40900 0.27620
H12 H 0.61920 0.38550 0.34740
H13 H 0.57040 0.37140 0.40320
H14 H 0.57400 0.32390 0.34470
H15 H 0.57040 0.49540 0.34140
H16 H 0.49700 0.50480 0.32420
H17 H 0.51840 0.47950 0.39330
P1A P 0.33682(2) 0.27891(2) 0.41935(2)
N1A N 0.38237(7) 0.33260(7) 0.46020(7)
C1A C 0.26329(9) 0.25829(9) 0.46386(9)
C2A C 0.26353(11) 0.23606(11) 0.52777(11)
C3A C 0.20583(11) 0.22404(12) 0.55961(13)
C4A C 0.14735(12) 0.23301(11) 0.52786(12)
C5A C 0.14642(12) 0.25185(10) 0.46382(10)
C6A C 0.20447(10) 0.26510(9) 0.43213(9)
C7A C 0.38151(9) 0.20307(9) 0.42140(9)
C8A C 0.44905(9) 0.20337(9) 0.42108(9)
C9A C 0.48332(10) 0.14595(10) 0.41732(10)
C10A C 0.45094(10) 0.08755(11) 0.41337(10)
C11A C 0.38381(10) 0.08657(10) 0.41281(10)
C12A C 0.34922(9) 0.14401(10) 0.41672(9)
C13A C 0.40972(9) 0.32311(9) 0.52545(10)
C14A C 0.36915(10) 0.35719(11) 0.57661(11)
C15A C 0.47887(11) 0.34801(11) 0.52807(12)
H1A H 0.30290 0.22840 0.54800
H2A H 0.20730 0.21020 0.60210
H3A H 0.10820 0.22560 0.54960
H4A H 0.10690 0.25680 0.44240
H5A H 0.20390 0.27910 0.38900
H6A H 0.47150 0.24290 0.42320
H7A H 0.52830 0.14690 0.41710
H8A H 0.47430 0.04930 0.41130
H9A H 0.36230 0.04780 0.41040
H10A H 0.30370 0.14300 0.41640
H11A H 0.40900 0.27620 0.53400
H12A H 0.38550 0.34740 0.61920
H13A H 0.37140 0.40320 0.57040
H14A H 0.32390 0.34470 0.57400
H15A H 0.49540 0.34140 0.57040
H16A H 0.50480 0.32420 0.49700
H17A H 0.47950 0.39330 0.51840
P1B P 0.27891(2) 0.41935(2) 0.33682(2)
N1B N 0.33260(7) 0.46020(7) 0.38237(7)
C1B C 0.25829(9) 0.46386(9) 0.26329(9)
C2B C 0.23606(11) 0.52777(11) 0.26353(11)
C3B C 0.22404(11) 0.55961(12) 0.20583(13)
C4B C 0.23301(12) 0.52786(11) 0.14735(12)
C5B C 0.25185(12) 0.46382(10) 0.14642(10)
C6B C 0.2651(1) 0.43213(9) 0.20447(9)
C7B C 0.20307(9) 0.42140(9) 0.38151(9)
C8B C 0.20337(9) 0.42108(9) 0.44905(9)
C9B C 0.14595(10) 0.41732(10) 0.48332(10)
C10B C 0.08755(10) 0.41337(11) 0.45094(10)
C11B C 0.08657(10) 0.41281(10) 0.38381(10)
C12B C 0.14401(9) 0.41672(10) 0.34922(9)
C13B C 0.32311(9) 0.52545(9) 0.40972(10)
C14B C 0.35719(10) 0.57661(11) 0.36915(11)
C15B C 0.34801(11) 0.52807(11) 0.47887(12)
H1B H 0.22840 0.54800 0.30290
H2B H 0.21020 0.60210 0.20730
H3B H 0.22560 0.54960 0.10820
H4B H 0.25680 0.44240 0.10690
H5B H 0.27910 0.38900 0.20390
H6B H 0.24290 0.42320 0.47150
H7B H 0.14690 0.41710 0.52830
H8B H 0.04930 0.41130 0.47430
H9B H 0.04780 0.41040 0.36230
H10B H 0.14300 0.41640 0.30370
H11B H 0.27620 0.53400 0.40900
H12B H 0.34740 0.61920 0.38550
H13B H 0.40320 0.57040 0.37140
H14B H 0.34470 0.57400 0.32390
H15B H 0.34140 0.57040 0.49540
H16B H 0.32420 0.49700 0.50480
H17B H 0.39330 0.51840 0.47950
#END

data_CSD_CIF_TURKAS
_audit_creation_date 1997-07-04
_audit_creation_method CSD-ConQuest-V1
_database_code_CSD TURKAS
_database_code_depnum_ccdc_archive 'CCDC 1277218; CCDC 405869'
_database_code_depnum_ccdc_fiz 'CSD 405869'
_chemical_formula_sum 'C36 H36 Au2 B6 P2'
_chemical_formula_moiety
;
C36 H36 Au2 B6 P2
;
_journal_coden_Cambridge 48
_journal_volume 130
_journal_year 1997
_journal_page_first 405
_journal_name_full 'Chem.Ber. '
loop_
_publ_author_name
"T.Schaper"
"W.Preetz"
_chemical_name_systematic
;
(Trihapto-hexahydro-closo-hexaborato)-bis(triphenylphosphine)-di-gold(i)
;
_cell_volume   4956.478
_exptl_crystal_colour 'colorless'
_exptl_crystal_density_diffrn 1.326
_exptl_special_details
;
cubic A polymorph

;
_exptl_crystal_description 'octahedral'
_diffrn_ambient_temperature ?
_diffrn_special_details
;
The study was carried out at room temperature,in the range 283-303K

;
#These two values have been output from a single CSD field.
_refine_ls_R_factor_gt 0.0419
_refine_ls_wR_factor_gt 0.0419
_symmetry_cell_setting cubic
_symmetry_space_group_name_H-M 'P a -3'
_symmetry_Int_Tables_number 205
loop_
_symmetry_equiv_pos_site_id
_symmetry_equiv_pos_as_xyz
1 x,y,z
2 1/2-x,-y,1/2+z
3 1/2+x,1/2-y,-z
4 z,x,y
5 -x,1/2+y,1/2-z
6 1/2-z,-x,1/2+y
7 1/2+z,1/2-x,-y
8 -z,1/2+x,1/2-y
9 y,z,x
10 1/2+y,1/2-z,-x
11 -y,1/2+z,1/2-x
12 1/2-y,-z,1/2+x
13 -x,-y,-z
14 -1/2+x,y,-1/2-z
15 -1/2-x,-1/2+y,z
16 -z,-x,-y
17 x,-1/2-y,-1/2+z
18 -1/2+z,x,-1/2-y
19 -1/2-z,-1/2+x,y
20 z,-1/2-x,-1/2+y
21 -y,-z,-x
22 -1/2-y,-1/2+z,x
23 y,-1/2-z,-1/2+x
24 -1/2+y,z,-1/2-x
_cell_length_a 17.050(5)
_cell_length_b 17.050(5)
_cell_length_c 17.050(5)
_cell_angle_alpha 90
_cell_angle_beta 90
_cell_angle_gamma 90
_cell_formula_units_Z 4
loop_
_atom_type_symbol
_atom_type_radius_bond
C 0.68
H 0.23
Au 1.50
B 0.83
P 1.05
loop_
_atom_site_label
_atom_site_type_symbol
_atom_site_fract_x
_atom_site_fract_y
_atom_site_fract_z
Au1 Au 0.90676(2) 0.40676(2) 0.09324(2)
P1 P 0.83059(11) 0.33059(11) 0.16941(11)
B1 B 1.0185(5) 0.4324(5) 0.0172(5)
C1 C 0.7920(5) 0.2482(5) 0.1153(5)
C2 C 0.7185(6) 0.2139(6) 0.1340(6)
H1 H 0.6885(6) 0.2332(6) 0.1753(6)
C3 C 0.6927(7) 0.1523(7) 0.0902(7)
H2 H 0.6439(7) 0.1306(7) 0.1017(7)
C4 C 0.7350(7) 0.1212(7) 0.0306(8)
H3 H 0.7158(7) 0.0790(7) 0.0020(8)
C5 C 0.8078(7) 0.1535(6) 0.0130(7)
H4 H 0.8383(7) 0.1327(6) -0.0271(7)
C6 C 0.8337(6) 0.2163(6) 0.0556(6)
H5 H 0.8821(6) 0.2382(6) 0.0429(6)
H6 H 1.0463(6) 0.3806(6) 0.0305(6)
C1G C 0.8847(5) 0.2920(5) 0.2518(5)
C2G C 0.8660(6) 0.2185(6) 0.2861(6)
H1G H 0.8247(6) 0.1885(6) 0.2668(6)
C3G C 0.9098(7) 0.1927(7) 0.3477(7)
H2G H 0.8983(7) 0.1439(7) 0.3694(7)
C4G C 0.9694(7) 0.2350(7) 0.3788(8)
H3G H 0.9980(7) 0.2158(7) 0.4210(8)
C5G C 0.9870(7) 0.3078(6) 0.3465(7)
H4G H 1.0271(7) 0.3383(6) 0.3673(7)
C6G C 0.9444(6) 0.3337(6) 0.2837(6)
H5G H 0.9571(6) 0.3821(6) 0.2618(6)
C1I C 0.7482(5) 0.3847(5) 0.2080(5)
C2I C 0.7139(6) 0.3660(6) 0.2815(6)
H1I H 0.7332(6) 0.3247(6) 0.3115(6)
C3I C 0.6523(7) 0.4098(7) 0.3073(7)
H2I H 0.6306(7) 0.3983(7) 0.3561(7)
C4I C 0.6212(7) 0.4694(7) 0.2650(8)
H3I H 0.5790(7) 0.4980(7) 0.2842(8)
C5I C 0.6535(7) 0.4870(6) 0.1922(7)
H4I H 0.6327(7) 0.5271(6) 0.1617(7)
C6I C 0.7163(6) 0.4444(6) 0.1663(6)
H5I H 0.7382(6) 0.4571(6) 0.1179(6)
B1G B 0.9828(5) 0.5185(5) 0.0676(5)
B1I B 0.9324(5) 0.4828(5) -0.0185(5)
B1S B 1.0172(5) 0.4815(5) -0.0676(5)
Au1S Au 1.09324(2) 0.59324(2) -0.09324(2)
P1S P 1.16941(11) 0.66941(11) -0.16941(11)
C1S C 1.1153(5) 0.7080(5) -0.2518(5)
C2S C 1.1340(6) 0.7815(6) -0.2861(6)
H1S H 1.1753(6) 0.8115(6) -0.2668(6)
C3S C 1.0902(7) 0.8073(7) -0.3477(7)
H2S H 1.1017(7) 0.8561(7) -0.3694(7)
C4S C 1.0306(7) 0.7650(7) -0.3788(8)
H3S H 1.0020(7) 0.7842(7) -0.4210(8)
C5S C 1.0130(7) 0.6922(6) -0.3465(7)
H4S H 0.9729(7) 0.6617(6) -0.3673(7)
C6S C 1.0556(6) 0.6663(6) -0.2837(6)
H5S H 1.0429(6) 0.6179(6) -0.2618(6)
C1U C 1.2518(5) 0.6153(5) -0.2080(5)
C2U C 1.2861(6) 0.6340(6) -0.2815(6)
H1U H 1.2668(6) 0.6753(6) -0.3115(6)
C3U C 1.3477(7) 0.5902(7) -0.3073(7)
H2U H 1.3694(7) 0.6017(7) -0.3561(7)
C4U C 1.3788(7) 0.5306(7) -0.2650(8)
H3U H 1.4210(7) 0.5020(7) -0.2842(8)
C5U C 1.3465(7) 0.5130(6) -0.1922(7)
H4U H 1.3673(7) 0.4729(6) -0.1617(7)
C6U C 1.2837(6) 0.5556(6) -0.1663(6)
H5U H 1.2618(6) 0.5429(6) -0.1179(6)
C1L C 1.2080(5) 0.7518(5) -0.1153(5)
C2L C 1.2815(6) 0.7861(6) -0.1340(6)
H1L H 1.3115(6) 0.7668(6) -0.1753(6)
C3L C 1.3073(7) 0.8477(7) -0.0902(7)
H2L H 1.3561(7) 0.8694(7) -0.1017(7)
C4L C 1.2650(7) 0.8788(7) -0.0306(8)
H3L H 1.2842(7) 0.9210(7) -0.0020(8)
C5L C 1.1922(7) 0.8465(6) -0.0130(7)
H4L H 1.1617(7) 0.8673(6) 0.0271(7)
C6L C 1.1663(6) 0.7837(6) -0.0556(6)
H5L H 1.1179(6) 0.7618(6) -0.0429(6)
B1U B 1.0676(5) 0.5172(5) 0.0185(5)
B1L B 0.9815(5) 0.5676(5) -0.0172(5)
H6G H 0.9695(6) 0.5463(6) 0.1194(6)
H6L H 0.9537(6) 0.6194(6) -0.0305(6)
H6S H 1.0305(6) 0.4537(6) -0.1194(6)
H6I H 0.8806(6) 0.4695(6) -0.0463(6)
H6U H 1.1194(6) 0.5305(6) 0.0463(6)
#END

data_CSD_CIF_UBISIH
_audit_creation_date 2001-09-19
_audit_creation_method CSD-ConQuest-V1
_database_code_CSD UBISIH
_database_code_depnum_ccdc_archive 'CCDC 152555'
_chemical_formula_sum 'C72 H66 Cl2 N6 Ni1 S6'
_chemical_formula_moiety
;
C72 H66 N6 Ni1 S6 2+,2(Cl1 1-)
;
_journal_coden_Cambridge 29
_journal_volume 627
_journal_year 2001
_journal_page_first 1034
_journal_name_full 'Z.Anorg.Allg.Chem. '
loop_
_publ_author_name
"D.Sellmann"
"F.Geipel"
"F.W.Heinemann"
_chemical_name_systematic
;
hexakis(S,S-Diphenylsulfimide-N)-nickel dichloride
;
_cell_volume   6841.687
_exptl_crystal_colour 'light green'
_exptl_crystal_density_diffrn 1.298
_exptl_crystal_description 'octahedron'
_exptl_crystal_preparation 'THF'
_diffrn_ambient_temperature 200
#These two values have been output from a single CSD field.
_refine_ls_R_factor_gt 0.0456
_refine_ls_wR_factor_gt 0.0456
_symmetry_cell_setting cubic
_symmetry_space_group_name_H-M 'P a -3'
_symmetry_Int_Tables_number 205
loop_
_symmetry_equiv_pos_site_id
_symmetry_equiv_pos_as_xyz
1 x,y,z
2 z,x,y
3 y,z,x
4 1/2+x,y,1/2-z
5 x,1/2-y,1/2+z
6 1/2-x,1/2+y,z
7 1/2-z,1/2+x,y
8 1/2+z,x,1/2-y
9 z,1/2-x,1/2+y
10 y,1/2-z,1/2+x
11 1/2-y,1/2+z,x
12 1/2+y,z,1/2-x
13 -x,-y,-z
14 -z,-x,-y
15 -y,-z,-x
16 -1/2-x,-y,-1/2+z
17 -x,-1/2+y,-1/2-z
18 -1/2+x,-1/2-y,-z
19 -1/2+z,-1/2-x,-y
20 -1/2-z,-x,-1/2+y
21 -z,-1/2+x,-1/2-y
22 -y,-1/2+z,-1/2-x
23 -1/2+y,-1/2-z,-x
24 -1/2-y,-z,-1/2+x
_cell_length_a 18.984(1)
_cell_length_b 18.984(1)
_cell_length_c 18.984(1)
_cell_angle_alpha 90
_cell_angle_beta 90
_cell_angle_gamma 90
_cell_formula_units_Z 4
loop_
_atom_type_symbol
_atom_type_radius_bond
C 0.68
H 0.23
Cl 0.99
N 0.68
Ni 1.50
S 1.02
loop_
_atom_site_label
_atom_site_type_symbol
_atom_site_fract_x
_atom_site_fract_y
_atom_site_fract_z
Ni1 Ni 0.50000 0.00000 0.00000
S1 S 0.58575(4) 0.10366(4) 0.11063(4)
Cl1 Cl 0.87102(4) 0.37102(4) 0.12898(4)
N1 N 0.57800(12) 0.03058(12) 0.07306(12)
C1 C 0.67783(15) 0.12103(15) 0.12517(14)
C2 C 0.72349(17) 0.06771(19) 0.14435(17)
C3 C 0.79468(18) 0.0836(2) 0.1509(2)
C4 C 0.8182(2) 0.1516(3) 0.1390(2)
C5 C 0.7724(2) 0.2037(2) 0.1205(2)
C6 C 0.70085(19) 0.18905(18) 0.11288(19)
C7 C 0.55770(14) 0.09758(15) 0.20185(14)
C8 C 0.56473(18) 0.15576(17) 0.24565(17)
C9 C 0.53739(19) 0.15306(19) 0.31307(17)
C10 C 0.50386(19) 0.0929(2) 0.33622(17)
C11 C 0.49758(18) 0.03519(19) 0.29231(17)
C12 C 0.52439(16) 0.03754(17) 0.22386(16)
H1 H 0.597(2) -0.007(2) 0.098(2)
H2 H 0.704(2) 0.020(2) 0.152(2)
H3 H 0.824(2) 0.049(2) 0.167(2)
H4 H 0.865(2) 0.161(2) 0.143(2)
H5 H 0.787(2) 0.250(2) 0.110(2)
H6 H 0.667(2) 0.225(2) 0.099(2)
H7 H 0.586(2) 0.197(2) 0.230(2)
H8 H 0.540(2) 0.192(2) 0.346(2)
H9 H 0.490(2) 0.089(2) 0.381(2)
H10 H 0.476(2) -0.004(2) 0.314(2)
H11 H 0.519(2) -0.003(2) 0.197(2)
N1F N 0.42694(12) 0.07800(12) 0.03058(12)
S1F S 0.38937(4) 0.08575(4) 0.10366(4)
C1F C 0.37483(15) 0.17783(15) 0.12103(14)
C2F C 0.35565(17) 0.22349(19) 0.06771(17)
C3F C 0.34910(18) 0.29468(20) 0.0836(2)
C4F C 0.3610(2) 0.3182(3) 0.1516(2)
C5F C 0.3795(2) 0.2724(2) 0.2037(2)
C6F C 0.38712(19) 0.20085(18) 0.18905(19)
H6F H 0.401(2) 0.167(2) 0.225(2)
H5F H 0.390(2) 0.287(2) 0.250(2)
H4F H 0.357(2) 0.365(2) 0.161(2)
H3F H 0.333(2) 0.324(2) 0.049(2)
H2F H 0.348(2) 0.204(2) 0.020(2)
C7F C 0.29815(14) 0.05770(15) 0.09758(14)
C8F C 0.25435(18) 0.06473(17) 0.15576(17)
C9F C 0.18693(19) 0.03739(19) 0.15306(17)
C10F C 0.16378(19) 0.00386(20) 0.09290(17)
C11F C 0.20769(18) -0.00242(19) 0.03519(17)
C12F C 0.27614(16) 0.02439(17) 0.03754(16)
H11F H 0.303(2) 0.019(2) -0.003(2)
H10F H 0.186(2) -0.024(2) -0.004(2)
H9F H 0.119(2) -0.010(2) 0.089(2)
H8F H 0.154(2) 0.040(2) 0.192(2)
H7F H 0.270(2) 0.086(2) 0.197(2)
H1F H 0.402(2) 0.097(2) -0.007(2)
N1K N 0.53058(12) 0.07306(12) -0.07800(12)
S1K S 0.60366(4) 0.11063(4) -0.08575(4)
C1K C 0.62103(15) 0.12517(15) -0.17783(14)
C2K C 0.56771(17) 0.14435(19) -0.22349(17)
C3K C 0.58360(18) 0.1509(2) -0.29468(20)
C4K C 0.6516(2) 0.1390(3) -0.3182(2)
C5K C 0.7037(2) 0.1205(2) -0.2724(2)
C6K C 0.68905(19) 0.11288(18) -0.20085(19)
H6K H 0.725(2) 0.099(2) -0.167(2)
H5K H 0.750(2) 0.110(2) -0.287(2)
H4K H 0.661(2) 0.143(2) -0.365(2)
H3K H 0.549(2) 0.167(2) -0.324(2)
H2K H 0.520(2) 0.152(2) -0.204(2)
C7K C 0.59758(14) 0.20185(15) -0.05770(14)
C8K C 0.65576(18) 0.24565(17) -0.06473(17)
C9K C 0.65306(19) 0.31307(19) -0.03739(17)
C10K C 0.59290(19) 0.33622(20) -0.00386(17)
C11K C 0.53519(18) 0.29231(19) 0.00242(17)
C12K C 0.53754(16) 0.22386(17) -0.02439(16)
H11K H 0.497(2) 0.197(2) -0.019(2)
H10K H 0.496(2) 0.314(2) 0.024(2)
H9K H 0.589(2) 0.381(2) 0.010(2)
H8K H 0.692(2) 0.346(2) -0.040(2)
H7K H 0.697(2) 0.230(2) -0.086(2)
H1K H 0.493(2) 0.098(2) -0.097(2)
N1L N 0.42200(12) -0.03058(12) -0.07306(12)
S1L S 0.41425(4) -0.10366(4) -0.11063(4)
C1L C 0.32217(15) -0.12103(15) -0.12517(14)
C2L C 0.27651(17) -0.06771(19) -0.14435(17)
C3L C 0.20532(18) -0.0836(2) -0.1509(2)
C4L C 0.1818(2) -0.1516(3) -0.1390(2)
C5L C 0.2276(2) -0.2037(2) -0.1205(2)
C6L C 0.29915(19) -0.18905(18) -0.11288(19)
H6L H 0.333(2) -0.225(2) -0.099(2)
H5L H 0.213(2) -0.250(2) -0.110(2)
H4L H 0.135(2) -0.161(2) -0.143(2)
H3L H 0.176(2) -0.049(2) -0.167(2)
H2L H 0.296(2) -0.020(2) -0.152(2)
C7L C 0.44230(14) -0.09758(15) -0.20185(14)
C8L C 0.43527(18) -0.15576(17) -0.24565(17)
C9L C 0.46261(19) -0.15306(19) -0.31307(17)
C10L C 0.49614(19) -0.0929(2) -0.33622(17)
C11L C 0.50242(18) -0.03519(19) -0.29231(17)
C12L C 0.47561(16) -0.03754(17) -0.22386(16)
H11L H 0.481(2) 0.003(2) -0.197(2)
H10L H 0.524(2) 0.004(2) -0.314(2)
H9L H 0.510(2) -0.089(2) -0.381(2)
H8L H 0.460(2) -0.192(2) -0.346(2)
H7L H 0.414(2) -0.197(2) -0.230(2)
H1L H 0.403(2) 0.007(2) -0.098(2)
N1R N 0.57306(12) -0.07800(12) -0.03058(12)
S1R S 0.61063(4) -0.08575(4) -0.10366(4)
C1R C 0.62517(15) -0.17783(15) -0.12103(14)
C2R C 0.64435(17) -0.22349(19) -0.06771(17)
C3R C 0.65090(18) -0.29468(20) -0.0836(2)
C4R C 0.6390(2) -0.3182(3) -0.1516(2)
C5R C 0.6205(2) -0.2724(2) -0.2037(2)
C6R C 0.61288(19) -0.20085(18) -0.18905(19)
H6R H 0.599(2) -0.167(2) -0.225(2)
H5R H 0.610(2) -0.287(2) -0.250(2)
H4R H 0.643(2) -0.365(2) -0.161(2)
H3R H 0.667(2) -0.324(2) -0.049(2)
H2R H 0.652(2) -0.204(2) -0.020(2)
C7R C 0.70185(14) -0.05770(15) -0.09758(14)
C8R C 0.74565(18) -0.06473(17) -0.15576(17)
C9R C 0.81307(19) -0.03739(19) -0.15306(17)
C10R C 0.83622(19) -0.00386(20) -0.09290(17)
C11R C 0.79231(18) 0.00242(19) -0.03519(17)
C12R C 0.72386(16) -0.02439(17) -0.03754(16)
H11R H 0.697(2) -0.019(2) 0.003(2)
H10R H 0.814(2) 0.024(2) 0.004(2)
H9R H 0.881(2) 0.010(2) -0.089(2)
H8R H 0.846(2) -0.040(2) -0.192(2)
H7R H 0.730(2) -0.086(2) -0.197(2)
H1R H 0.598(2) -0.097(2) 0.007(2)
N1W N 0.46942(12) -0.07306(12) 0.07800(12)
S1W S 0.39634(4) -0.11063(4) 0.08575(4)
C1W C 0.37897(15) -0.12517(15) 0.17783(14)
C2W C 0.43229(17) -0.14435(19) 0.22349(17)
C3W C 0.41640(18) -0.1509(2) 0.29468(20)
C4W C 0.3484(2) -0.1390(3) 0.3182(2)
C5W C 0.2963(2) -0.1205(2) 0.2724(2)
C6W C 0.31095(19) -0.11288(18) 0.20085(19)
H6W H 0.275(2) -0.099(2) 0.167(2)
H5W H 0.250(2) -0.110(2) 0.287(2)
H4W H 0.339(2) -0.143(2) 0.365(2)
H3W H 0.451(2) -0.167(2) 0.324(2)
H2W H 0.480(2) -0.152(2) 0.204(2)
C7W C 0.40242(14) -0.20185(15) 0.05770(14)
C8W C 0.34424(18) -0.24565(17) 0.06473(17)
C9W C 0.34694(19) -0.31307(19) 0.03739(17)
C10W C 0.40710(19) -0.33622(20) 0.00386(17)
C11W C 0.46481(18) -0.29231(19) -0.00242(17)
C12W C 0.46246(16) -0.22386(17) 0.02439(16)
H11W H 0.503(2) -0.197(2) 0.019(2)
H10W H 0.504(2) -0.314(2) -0.024(2)
H9W H 0.411(2) -0.381(2) -0.010(2)
H8W H 0.308(2) -0.346(2) 0.040(2)
H7W H 0.303(2) -0.230(2) 0.086(2)
H1W H 0.507(2) -0.098(2) 0.097(2)
#END

data_CSD_CIF_UCOYAQ
_audit_creation_date 2021-09-23
_audit_creation_method CSD-ConQuest-V1
_database_code_CSD UCOYAQ
_database_code_depnum_ccdc_archive 'CCDC 2111589'
_chemical_formula_sum 'C60 H90 Co6 P6 Te8'
_chemical_formula_moiety
;
C60 H90 Co6 P6 Te8
;
_journal_coden_Cambridge 4
_journal_volume 136
_journal_year 2014
_journal_page_first 15873
_journal_name_full 'J.Am.Chem.Soc. '
loop_
_publ_author_name
"A.Turkiewicz"
"D.W.Paley"
"T.Besara"
"G.Elbaz"
"A.Pinkard"
"T.Siegrist"
"X.Roy"
_chemical_name_systematic
;
octakis(\m-tellurido)-hexakis(diethyl(phenyl)phosphine)-hexa-cobalt
;
_cell_volume   7193.830
_exptl_crystal_density_diffrn 2.19
_diffrn_ambient_temperature 100
#These two values have been output from a single CSD field.
_refine_ls_R_factor_gt 0.0239
_refine_ls_wR_factor_gt 0.0239
_symmetry_cell_setting cubic
_symmetry_space_group_name_H-M 'P a -3'
_symmetry_Int_Tables_number 205
loop_
_symmetry_equiv_pos_site_id
_symmetry_equiv_pos_as_xyz
1 x,y,z
2 1/2-x,-y,1/2+z
3 1/2+x,1/2-y,-z
4 -x,1/2+y,1/2-z
5 z,x,y
6 1/2-z,-x,1/2+y
7 1/2+z,1/2-x,-y
8 -z,1/2+x,1/2-y
9 y,z,x
10 1/2+y,1/2-z,-x
11 -y,1/2+z,1/2-x
12 1/2-y,-z,1/2+x
13 -x,-y,-z
14 -1/2+x,y,-1/2-z
15 -1/2-x,-1/2+y,z
16 x,-1/2-y,-1/2+z
17 -z,-x,-y
18 -1/2+z,x,-1/2-y
19 -1/2-z,-1/2+x,y
20 z,-1/2-x,-1/2+y
21 -y,-z,-x
22 -1/2-y,-1/2+z,x
23 y,-1/2-z,-1/2+x
24 -1/2+y,z,-1/2-x
_cell_length_a 19.30427(8)
_cell_length_b 19.30427(8)
_cell_length_c 19.30427(8)
_cell_angle_alpha 90
_cell_angle_beta 90
_cell_angle_gamma 90
_cell_formula_units_Z 4
loop_
_atom_type_symbol
_atom_type_radius_bond
C 0.68
H 0.23
Co 1.26
P 1.05
Te 1.47
loop_
_atom_site_label
_atom_site_type_symbol
_atom_site_fract_x
_atom_site_fract_y
_atom_site_fract_z
Te1 Te 0.58822(2) 0.58822(2) 0.58822(2)
Te2 Te 0.37859(2) 0.58464(2) 0.44517(2)
Co1 Co 0.47971(3) 0.61190(3) 0.52225(3)
P1 P 0.47146(4) 0.72031(4) 0.54222(4)
C1 C 0.55201(18) 0.76173(17) 0.57056(19)
C2 C 0.44443(19) 0.77490(18) 0.46872(18)
H1 H 0.47620 0.76560 0.42960
H2 H 0.39760 0.75990 0.45420
C3 C 0.5702(2) 0.76674(19) 0.6402(2)
H3 H 0.53820 0.75210 0.67460
C4 C 0.4424(2) 0.85359(18) 0.4806(2)
H4 H 0.40990 0.86420 0.51810
H5 H 0.42730 0.87670 0.43800
H6 H 0.48870 0.87000 0.49320
C5 C 0.6006(2) 0.78369(19) 0.5209(2)
H7 H 0.58960 0.78080 0.47310
C6 C 0.41005(18) 0.74630(18) 0.61041(19)
H8 H 0.42280 0.72280 0.65420
H9 H 0.41410 0.79680 0.61810
C7 C 0.33446(19) 0.7288(2) 0.5927(2)
H10 H 0.30450 0.74220 0.63140
H11 H 0.33010 0.67890 0.58440
H12 H 0.32050 0.75420 0.55100
C8 C 0.6645(2) 0.8095(2) 0.5411(3)
H13 H 0.69700 0.82390 0.50700
C9 C 0.6342(2) 0.7927(2) 0.6604(3)
H14 H 0.64550 0.79560 0.70820
C10 C 0.6815(2) 0.8146(2) 0.6110(3)
H15 H 0.72510 0.83280 0.62470
Te2D Te 0.44517(2) 0.37859(2) 0.58464(2)
Co1D Co 0.52225(3) 0.47971(3) 0.61190(3)
P1D P 0.54222(4) 0.47146(4) 0.72031(4)
C1D C 0.57056(18) 0.55201(17) 0.76173(19)
C2D C 0.46872(19) 0.44443(18) 0.77490(18)
H1D H 0.42960 0.47620 0.76560
H2D H 0.45420 0.39760 0.75990
C3D C 0.6402(2) 0.57020(19) 0.76674(20)
H3D H 0.67460 0.53820 0.75210
C4D C 0.4806(2) 0.44240(18) 0.85359(20)
H4D H 0.51810 0.40990 0.86420
H5D H 0.43800 0.42730 0.87670
H6D H 0.49320 0.48870 0.87000
C5D C 0.5209(2) 0.60060(19) 0.78369(20)
H7D H 0.47310 0.58960 0.78080
C6D C 0.61041(18) 0.41005(18) 0.74630(19)
H8D H 0.65420 0.42280 0.72280
H9D H 0.61810 0.41410 0.79680
C7D C 0.59270(19) 0.33446(20) 0.7288(2)
H10D H 0.63140 0.30450 0.74220
H11D H 0.58440 0.33010 0.67890
H12D H 0.55100 0.32050 0.75420
C8D C 0.5411(2) 0.6645(2) 0.8095(3)
H13D H 0.50700 0.69700 0.82390
C9D C 0.6604(2) 0.6342(2) 0.7927(3)
H14D H 0.70820 0.64550 0.79560
C10D C 0.6110(2) 0.6815(2) 0.8146(3)
H15D H 0.62470 0.72510 0.83280
Te2H Te 0.58464(2) 0.44517(2) 0.37859(2)
Co1H Co 0.61190(3) 0.52225(3) 0.47971(3)
P1H P 0.72031(4) 0.54222(4) 0.47146(4)
C1H C 0.76173(18) 0.57056(17) 0.55201(19)
C2H C 0.77490(19) 0.46872(18) 0.44443(18)
H1H H 0.76560 0.42960 0.47620
H2H H 0.75990 0.45420 0.39760
C3H C 0.76674(20) 0.64020(19) 0.5702(2)
H3H H 0.75210 0.67460 0.53820
C4H C 0.85359(20) 0.48060(18) 0.4424(2)
H4H H 0.86420 0.51810 0.40990
H5H H 0.87670 0.43800 0.42730
H6H H 0.87000 0.49320 0.48870
C5H C 0.78369(20) 0.52090(19) 0.6006(2)
H7H H 0.78080 0.47310 0.58960
C6H C 0.74630(18) 0.61041(18) 0.41005(19)
H8H H 0.72280 0.65420 0.42280
H9H H 0.79680 0.61810 0.41410
C7H C 0.72880(19) 0.5927(2) 0.33446(20)
H10H H 0.74220 0.63140 0.30450
H11H H 0.67890 0.58440 0.33010
H12H H 0.75420 0.55100 0.32050
C8H C 0.8095(2) 0.5411(2) 0.6645(3)
H13H H 0.82390 0.50700 0.69700
C9H C 0.7927(2) 0.6604(2) 0.6342(3)
H14H H 0.79560 0.70820 0.64550
C10H C 0.8146(2) 0.6110(2) 0.6815(3)
H15H H 0.83280 0.62470 0.72510
Te1L Te 0.41178(2) 0.41178(2) 0.41178(2)
Te2L Te 0.62141(2) 0.41536(2) 0.55483(2)
Co1L Co 0.52029(3) 0.38810(3) 0.47775(3)
P1L P 0.52854(4) 0.27969(4) 0.45778(4)
C1L C 0.44799(18) 0.23827(17) 0.42944(19)
C2L C 0.55557(19) 0.22510(18) 0.53128(18)
H1L H 0.52380 0.23440 0.57040
H2L H 0.60240 0.24010 0.54580
C3L C 0.4298(2) 0.23326(19) 0.3598(2)
H3L H 0.46180 0.24790 0.32540
C4L C 0.5576(2) 0.14641(18) 0.5194(2)
H4L H 0.59010 0.13580 0.48190
H5L H 0.57270 0.12330 0.56200
H6L H 0.51130 0.13000 0.50680
C5L C 0.3994(2) 0.21631(19) 0.4791(2)
H7L H 0.41040 0.21920 0.52690
C6L C 0.58995(18) 0.25370(18) 0.38959(19)
H8L H 0.57720 0.27720 0.34580
H9L H 0.58590 0.20320 0.38190
C7L C 0.66554(19) 0.2712(2) 0.4073(2)
H10L H 0.69550 0.25780 0.36860
H11L H 0.66990 0.32110 0.41560
H12L H 0.67950 0.24580 0.44900
C8L C 0.3355(2) 0.1905(2) 0.4589(3)
H13L H 0.30300 0.17610 0.49300
C9L C 0.3658(2) 0.2073(2) 0.3396(3)
H14L H 0.35450 0.20440 0.29180
C10L C 0.3185(2) 0.1854(2) 0.3890(3)
H15L H 0.27490 0.16720 0.37530
Te2P Te 0.55483(2) 0.62141(2) 0.41536(2)
Co1P Co 0.47775(3) 0.52029(3) 0.38810(3)
P1P P 0.45778(4) 0.52854(4) 0.27969(4)
C1P C 0.42944(18) 0.44799(17) 0.23827(19)
C2P C 0.53128(19) 0.55557(18) 0.22510(18)
H1P H 0.57040 0.52380 0.23440
H2P H 0.54580 0.60240 0.24010
C3P C 0.3598(2) 0.42980(19) 0.23326(20)
H3P H 0.32540 0.46180 0.24790
C4P C 0.5194(2) 0.55760(18) 0.14641(20)
H4P H 0.48190 0.59010 0.13580
H5P H 0.56200 0.57270 0.12330
H6P H 0.50680 0.51130 0.13000
C5P C 0.4791(2) 0.39940(19) 0.21631(20)
H7P H 0.52690 0.41040 0.21920
C6P C 0.38959(18) 0.58995(18) 0.25370(19)
H8P H 0.34580 0.57720 0.27720
H9P H 0.38190 0.58590 0.20320
C7P C 0.40730(19) 0.66554(20) 0.2712(2)
H10P H 0.36860 0.69550 0.25780
H11P H 0.41560 0.66990 0.32110
H12P H 0.44900 0.67950 0.24580
C8P C 0.4589(2) 0.3355(2) 0.1905(3)
H13P H 0.49300 0.30300 0.17610
C9P C 0.3396(2) 0.3658(2) 0.2073(3)
H14P H 0.29180 0.35450 0.20440
C10P C 0.3890(2) 0.3185(2) 0.1854(3)
H15P H 0.37530 0.27490 0.16720
Te2T Te 0.41536(2) 0.55483(2) 0.62141(2)
Co1T Co 0.38810(3) 0.47775(3) 0.52029(3)
P1T P 0.27969(4) 0.45778(4) 0.52854(4)
C1T C 0.23827(18) 0.42944(17) 0.44799(19)
C2T C 0.22510(19) 0.53128(18) 0.55557(18)
H1T H 0.23440 0.57040 0.52380
H2T H 0.24010 0.54580 0.60240
C3T C 0.23326(20) 0.35980(19) 0.4298(2)
H3T H 0.24790 0.32540 0.46180
C4T C 0.14641(20) 0.51940(18) 0.5576(2)
H4T H 0.13580 0.48190 0.59010
H5T H 0.12330 0.56200 0.57270
H6T H 0.13000 0.50680 0.51130
C5T C 0.21631(20) 0.47910(19) 0.3994(2)
H7T H 0.21920 0.52690 0.41040
C6T C 0.25370(18) 0.38959(18) 0.58995(19)
H8T H 0.27720 0.34580 0.57720
H9T H 0.20320 0.38190 0.58590
C7T C 0.27120(19) 0.4073(2) 0.66554(20)
H10T H 0.25780 0.36860 0.69550
H11T H 0.32110 0.41560 0.66990
H12T H 0.24580 0.44900 0.67950
C8T C 0.1905(2) 0.4589(2) 0.3355(3)
H13T H 0.17610 0.49300 0.30300
C9T C 0.2073(2) 0.3396(2) 0.3658(3)
H14T H 0.20440 0.29180 0.35450
C10T C 0.1854(2) 0.3890(2) 0.3185(3)
H15T H 0.16720 0.37530 0.27490
#END

data_CSD_CIF_UJAVEI
_audit_creation_date 2016-03-23
_audit_creation_method CSD-ConQuest-V1
_database_code_CSD UJAVEI
_database_code_depnum_ccdc_archive 'CCDC 1438991'
_chemical_formula_sum 'C3 H6 I1 N3'
_chemical_formula_moiety
;
C3 H6 N3 1+,I1 1-
;
_journal_coden_Cambridge 1291
_journal_volume 2016
_journal_year 2016
_journal_page_first 1655
_journal_name_full 'Eur.J.Org.Chem. '
loop_
_publ_author_name
"Kenji Mishiro"
"Fanghao Hu"
"D.W.Paley"
"Wei Min"
"T.H.Lambert"
_chemical_name_systematic
;
2,3-Diaminocycloprop-2-en-1-iminium iodide
;
_cell_volume   1273.031
_exptl_crystal_density_diffrn 2.202
_exptl_crystal_description 'block'
_diffrn_ambient_temperature 99.9
#These two values have been output from a single CSD field.
_refine_ls_R_factor_gt 0.0167
_refine_ls_wR_factor_gt 0.0167
_symmetry_cell_setting cubic
_symmetry_space_group_name_H-M 'P a -3'
_symmetry_Int_Tables_number 205
loop_
_symmetry_equiv_pos_site_id
_symmetry_equiv_pos_as_xyz
1 x,y,z
2 1/2-x,-y,1/2+z
3 -x,1/2+y,1/2-z
4 1/2+x,1/2-y,-z
5 z,x,y
6 1/2+z,1/2-x,-y
7 1/2-z,-x,1/2+y
8 -z,1/2+x,1/2-y
9 y,z,x
10 -y,1/2+z,1/2-x
11 1/2+y,1/2-z,-x
12 1/2-y,-z,1/2+x
13 -x,-y,-z
14 -1/2+x,y,-1/2-z
15 x,-1/2-y,-1/2+z
16 -1/2-x,-1/2+y,z
17 -z,-x,-y
18 -1/2-z,-1/2+x,y
19 -1/2+z,x,-1/2-y
20 z,-1/2-x,-1/2+y
21 -y,-z,-x
22 y,-1/2-z,-1/2+x
23 -1/2-y,-1/2+z,x
24 -1/2+y,z,-1/2-x
_cell_length_a 10.83793(8)
_cell_length_b 10.83793(8)
_cell_length_c 10.83793(8)
_cell_angle_alpha 90
_cell_angle_beta 90
_cell_angle_gamma 90
_cell_formula_units_Z 8
loop_
_atom_type_symbol
_atom_type_radius_bond
C 0.68
H 0.23
I 1.40
N 0.68
loop_
_atom_site_label
_atom_site_type_symbol
_atom_site_fract_x
_atom_site_fract_y
_atom_site_fract_z
I1 I 0.71937(2) 0.71937(2) 0.71937(2)
C1 C 0.64766(15) 0.44710(15) 0.93485(15)
N1 N 0.74844(14) 0.50584(16) 0.97343(16)
H1 H 0.7631(17) 0.573(2) 0.9387(19)
H2 H 0.7754(19) 0.482(2) 1.045(3)
C1F C 0.56515(15) 0.35234(15) 0.94710(15)
N1F N 0.52657(14) 0.25156(16) 1.00584(16)
H1F H 0.5613(17) 0.2369(20) 1.0730(19)
H2F H 0.4550(19) 0.2246(20) 0.982(3)
C1I C 0.55290(15) 0.43485(15) 0.85234(15)
N1I N 0.49416(14) 0.47343(16) 0.75156(16)
H1I H 0.4270(17) 0.4387(20) 0.7369(19)
H2I H 0.5180(19) 0.545(2) 0.7246(30)
#END

data_CSD_CIF_UKESOT
_audit_creation_date 2011-04-07
_audit_creation_method CSD-ConQuest-V1
_database_code_CSD UKESOT
_database_code_depnum_ccdc_archive 'CCDC 781135'
_chemical_formula_sum 'C60 H90 Cd6 Cl14 N24 O20'
_chemical_formula_moiety
;
2(H3 O1 1+),C60 H72 Cd6 Cl14 N24 O12 2-,6(H2 O1)
;
_journal_coden_Cambridge 9
_journal_volume 49
_journal_year 2010
_journal_page_first 7638
_journal_name_full 'Inorg.Chem. '
loop_
_publ_author_name
"Xing Feng"
"Zhong-Fei Li"
"Sai-Feng Xue"
"Zhu Tao"
"Qian-Jiang Zhu"
"Yun-Qian Zhang"
"Jing-Xin Liu"
_chemical_name_systematic
;
bis(Oxonium) 
(\m~6~-cyclohexanocucurbit[6]uril)-bis(\m~3~-chloro)-hexakis(\m~2~-chloro)-hex
achloro-hexa-cadmium(ii) hexahydrate
;
_cell_volume   9195.007
_exptl_crystal_colour 'yellow'
_exptl_crystal_density_diffrn 1.906
_exptl_crystal_description 'block'
_diffrn_ambient_temperature 173
#These two values have been output from a single CSD field.
_refine_ls_R_factor_gt 0.0463
_refine_ls_wR_factor_gt 0.0463
_symmetry_cell_setting cubic
_symmetry_space_group_name_H-M 'P a -3'
_symmetry_Int_Tables_number 205
loop_
_symmetry_equiv_pos_site_id
_symmetry_equiv_pos_as_xyz
1 x,y,z
2 1/2-x,-y,1/2+z
3 -x,1/2+y,1/2-z
4 1/2+x,1/2-y,-z
5 z,x,y
6 1/2+z,1/2-x,-y
7 1/2-z,-x,1/2+y
8 -z,1/2+x,1/2-y
9 y,z,x
10 -y,1/2+z,1/2-x
11 1/2+y,1/2-z,-x
12 1/2-y,-z,1/2+x
13 -x,-y,-z
14 -1/2+x,y,-1/2-z
15 x,-1/2-y,-1/2+z
16 -1/2-x,-1/2+y,z
17 -z,-x,-y
18 -1/2-z,-1/2+x,y
19 -1/2+z,x,-1/2-y
20 z,-1/2-x,-1/2+y
21 -y,-z,-x
22 y,-1/2-z,-1/2+x
23 -1/2-y,-1/2+z,x
24 -1/2+y,z,-1/2-x
_cell_length_a 20.950(2)
_cell_length_b 20.950(2)
_cell_length_c 20.950(2)
_cell_angle_alpha 90
_cell_angle_beta 90
_cell_angle_gamma 90
_cell_formula_units_Z 4
loop_
_atom_type_symbol
_atom_type_radius_bond
C 0.68
H 0.23
Cd 1.44
Cl 0.99
N 0.68
O 0.68
loop_
_atom_site_label
_atom_site_type_symbol
_atom_site_fract_x
_atom_site_fract_y
_atom_site_fract_z
Cl1 Cl 0.82921(6) 0.27102(6) 0.08275(7)
Cl2 Cl 0.91929(6) 0.41929(6) 0.08071(6)
Cl3 Cl 0.68769(9) 0.37591(10) 0.00765(10)
Cd1 Cd 0.798584(19) 0.387980(18) 0.054094(18)
O1 O 0.78924(19) 0.49775(18) 0.03122(17)
C1 C 0.7958(2) 0.5416(2) -0.0073(2)
N1 N 0.8054(2) 0.6042(2) 0.0092(2)
N2 N 0.89527(19) 0.3618(2) -0.14002(19)
O2 O 0.83632(19) 0.36825(18) -0.04804(17)
C2 C 0.8521(2) 0.3895(2) -0.1002(2)
N3 N 0.7933(2) 0.53678(19) -0.0720(2)
N4 N 0.8270(2) 0.44190(19) -0.1299(2)
C3 C 0.7742(2) 0.4775(2) -0.1030(2)
H1 H 0.75200 0.45030 -0.07140
H2 H 0.74350 0.48750 -0.13740
C4 C 0.8856(2) 0.3540(3) -0.2582(2)
H3 H 0.89400 0.37820 -0.29790
H4 H 0.91350 0.31590 -0.25810
C5 C 0.8161(3) 0.3329(3) -0.2572(3)
H5 H 0.80980 0.30240 -0.22170
H6 H 0.80630 0.31030 -0.29750
C6 C 0.8027(2) 0.4539(2) -0.2450(3)
H7 H 0.82300 0.46390 -0.28650
H8 H 0.77100 0.48770 -0.23560
C7 C 0.8009(2) 0.6249(2) 0.0748(2)
H9 H 0.77980 0.59090 0.10000
H10 H 0.77330 0.66320 0.07660
C8 C 0.9017(2) 0.3958(2) -0.2007(2)
C9 C 0.7690(3) 0.3892(3) -0.2492(3)
H11 H 0.73920 0.38970 -0.28580
H12 H 0.74360 0.38250 -0.20990
C10 C 0.8074(2) 0.6464(2) -0.0468(2)
O3 O 0.6277(5) 0.3723(5) -0.1277(5)
H13 H 0.62620 0.41010 -0.14280
O4 O 0.9611(7) 0.4802(9) -0.3586(7)
H14 H 0.96220 0.44010 -0.36480
H15 H 0.99820 0.49220 -0.34760
Cl1J Cl 0.77102(6) 0.41725(6) 0.17079(7)
Cl1G Cl 0.91725(6) 0.32921(6) 0.22898(7)
Cl1S Cl 1.08275(6) 0.67079(6) -0.22898(7)
Cl1V Cl 1.22898(6) 0.58275(6) -0.17079(7)
Cl1L Cl 1.17079(6) 0.72898(6) -0.08275(7)
Cl2L Cl 1.08071(6) 0.58071(6) -0.08071(6)
Cl3J Cl 0.87591(9) 0.49235(10) 0.31231(10)
Cl3G Cl 0.99235(9) 0.18769(10) 0.12409(10)
Cl3V Cl 1.12409(9) 0.50765(10) -0.31231(10)
Cl3L Cl 1.31231(9) 0.62409(10) -0.00765(10)
Cl3S Cl 1.00765(9) 0.81231(10) -0.12409(10)
Cd1J Cd 0.887980(19) 0.445906(18) 0.201416(18)
Cd1G Cd 0.945906(19) 0.298584(18) 0.112020(18)
Cd1S Cd 1.054094(19) 0.701416(18) -0.112020(18)
Cd1V Cd 1.112020(19) 0.554094(18) -0.201416(18)
Cd1L Cd 1.201416(19) 0.612020(18) -0.054094(18)
O1J O 0.99775(19) 0.46878(18) 0.21076(17)
O1G O 0.96878(19) 0.28924(18) 0.00225(17)
O1V O 1.00225(19) 0.53122(18) -0.21076(17)
O1L O 1.21076(19) 0.50225(18) -0.03122(17)
O1S O 1.03122(19) 0.71076(18) -0.00225(17)
C1J C 1.0416(2) 0.5073(2) 0.2042(2)
C1G C 1.0073(2) 0.2958(2) -0.0416(2)
C1V C 0.9584(2) 0.4927(2) -0.2042(2)
C1L C 1.2042(2) 0.4584(2) 0.0073(2)
C1S C 0.9927(2) 0.7042(2) 0.0416(2)
N1J N 1.1042(2) 0.4908(2) 0.1946(2)
N1G N 0.9908(2) 0.3054(2) -0.1042(2)
N1V N 0.8958(2) 0.5092(2) -0.1946(2)
N1L N 1.1946(2) 0.3958(2) -0.0092(2)
N1S N 1.0092(2) 0.6946(2) 0.1042(2)
N2J N 0.86180(19) 0.64002(20) 0.10473(19)
N2G N 1.14002(19) 0.39527(20) 0.13820(19)
N2S N 0.85998(19) 0.60473(20) -0.13820(19)
N2V N 1.13820(19) 0.35998(20) -0.10473(19)
N2L N 1.10473(19) 0.6382(2) 0.14002(19)
O2J O 0.86825(19) 0.54804(18) 0.16368(17)
O2G O 1.04804(19) 0.33632(18) 0.13175(17)
O2S O 0.95196(19) 0.66368(18) -0.13175(17)
O2L O 1.16368(19) 0.63175(18) 0.04804(17)
O2V O 1.13175(19) 0.45196(18) -0.16368(17)
C2J C 0.8895(2) 0.6002(2) 0.1479(2)
C2G C 1.1002(2) 0.3521(2) 0.1105(2)
C2S C 0.8998(2) 0.6479(2) -0.1105(2)
C2V C 1.1105(2) 0.3998(2) -0.1479(2)
C2L C 1.1479(2) 0.6105(2) 0.1002(2)
N3V N 0.96322(20) 0.42800(19) -0.2067(2)
N3S N 0.9280(2) 0.70670(19) 0.03678(20)
N3J N 1.03678(20) 0.57200(19) 0.2067(2)
N3L N 1.2067(2) 0.46322(19) 0.0720(2)
N3G N 1.0720(2) 0.29330(19) -0.03678(20)
N4V N 1.0581(2) 0.37010(19) -0.1730(2)
N4S N 0.8701(2) 0.67300(19) -0.0581(2)
N4J N 0.9419(2) 0.62990(19) 0.1730(2)
N4L N 1.1730(2) 0.55810(19) 0.1299(2)
N4G N 1.1299(2) 0.32700(19) 0.0581(2)
C3V C 1.0225(2) 0.3970(2) -0.2258(2)
C3S C 0.8970(2) 0.7258(2) -0.0225(2)
C3J C 0.9775(2) 0.6030(2) 0.2258(2)
C3L C 1.2258(2) 0.5225(2) 0.1030(2)
C3G C 1.1030(2) 0.2742(2) 0.0225(2)
H1S H 0.92860 0.74800 -0.04970
H1G H 1.07140 0.25200 0.04970
H1L H 1.24800 0.54970 0.07140
H1J H 0.95030 0.57140 0.24800
H1V H 1.04970 0.42860 -0.24800
H2S H 0.86260 0.75650 -0.01250
H2G H 1.13740 0.24350 0.01250
H2L H 1.25650 0.51250 0.13740
H2J H 0.98750 0.63740 0.25650
H2V H 1.01250 0.36260 -0.25650
C4S C 0.7418(2) 0.6144(3) -0.1460(2)
C4J C 0.8540(2) 0.7582(3) 0.1144(2)
C4L C 1.1144(2) 0.6460(3) 0.2582(2)
C4G C 1.2582(2) 0.3856(3) 0.1460(2)
C4V C 1.1460(2) 0.2418(3) -0.1144(2)
H3S H 0.70210 0.60600 -0.12180
H3J H 0.87820 0.79790 0.10600
H3L H 1.10600 0.62180 0.29790
H3G H 1.29790 0.39400 0.12180
H3V H 1.12180 0.20210 -0.10600
H4S H 0.74190 0.58650 -0.18410
H4J H 0.81590 0.75810 0.08650
H4L H 1.08650 0.68410 0.25810
H4G H 1.25810 0.41350 0.18410
H4V H 1.18410 0.24190 -0.08650
C5S C 0.7428(3) 0.6839(3) -0.1671(3)
C5J C 0.8329(3) 0.7572(3) 0.1839(3)
C5L C 1.1839(3) 0.6671(3) 0.2572(3)
C5G C 1.2572(3) 0.3161(3) 0.1671(3)
C5V C 1.1671(3) 0.2428(3) -0.1839(3)
H5S H 0.77830 0.69020 -0.19760
H5J H 0.80240 0.72170 0.19020
H5L H 1.19020 0.69760 0.22170
H5G H 1.22170 0.30980 0.19760
H5V H 1.19760 0.27830 -0.19020
H6S H 0.70250 0.69370 -0.18970
H6J H 0.81030 0.79750 0.19370
H6L H 1.19370 0.68970 0.29750
H6G H 1.29750 0.30630 0.18970
H6V H 1.18970 0.20250 -0.19370
C6S C 0.7550(2) 0.6973(2) -0.0461(3)
C6J C 0.9539(2) 0.7450(2) 0.1973(3)
C6L C 1.1973(2) 0.5461(2) 0.2450(3)
C6G C 1.2450(2) 0.3027(2) 0.0461(3)
C6V C 1.0461(2) 0.2550(2) -0.1973(3)
H7S H 0.71350 0.67700 -0.03610
H7J H 0.96390 0.78650 0.17700
H7L H 1.17700 0.53610 0.28650
H7G H 1.28650 0.32300 0.03610
H7V H 1.03610 0.21350 -0.17700
H8S H 0.76440 0.72900 -0.01230
H8J H 0.98770 0.73560 0.22900
H8L H 1.22900 0.51230 0.23560
H8G H 1.23560 0.27100 0.01230
H8V H 1.01230 0.26440 -0.22900
C7J C 1.1249(2) 0.4252(2) 0.1991(2)
C7G C 0.9252(2) 0.3009(2) -0.1249(2)
C7V C 0.8751(2) 0.5748(2) -0.1991(2)
C7L C 1.1991(2) 0.3751(2) -0.0748(2)
C7S C 1.0748(2) 0.6991(2) 0.1249(2)
H9V H 0.90910 0.60000 -0.22020
H9S H 1.10000 0.72020 0.09090
H9L H 1.22020 0.40910 -0.10000
H9G H 0.90000 0.27980 -0.09090
H9J H 1.09090 0.40000 0.22020
H10V H 0.83680 0.57660 -0.22670
H10S H 1.07660 0.72670 0.16320
H10L H 1.22670 0.33680 -0.07660
H10G H 0.92340 0.27330 -0.16320
H10J H 1.16320 0.42340 0.22670
C8S C 0.7993(2) 0.5983(2) -0.1042(2)
C8J C 0.8958(2) 0.7007(2) 0.0983(2)
C8L C 1.0983(2) 0.6042(2) 0.2007(2)
C8G C 1.2007(2) 0.4017(2) 0.1042(2)
C8V C 1.1042(2) 0.2993(2) -0.0983(2)
C9S C 0.7508(3) 0.7310(3) -0.1108(3)
C9J C 0.8892(3) 0.7492(3) 0.2310(3)
C9L C 1.2310(3) 0.6108(3) 0.2492(3)
C9G C 1.2492(3) 0.2690(3) 0.1108(3)
C9V C 1.1108(3) 0.2508(3) -0.2310(3)
H11S H 0.71420 0.76080 -0.11030
H11V H 1.11030 0.21420 -0.26080
H11G H 1.28580 0.23920 0.11030
H11L H 1.26080 0.61030 0.28580
H11J H 0.88970 0.78580 0.26080
H12S H 0.79010 0.75640 -0.11750
H12V H 1.11750 0.29010 -0.25640
H12G H 1.20990 0.24360 0.11750
H12L H 1.25640 0.61750 0.20990
H12J H 0.88250 0.70990 0.25640
C10V C 0.8536(2) 0.4532(2) -0.1926(2)
C10S C 0.9532(2) 0.6926(2) 0.1464(2)
C10J C 1.1464(2) 0.5468(2) 0.1926(2)
C10L C 1.1926(2) 0.3536(2) 0.0468(2)
C10G C 1.0468(2) 0.3074(2) -0.1464(2)
H13F H 0.64280 0.37380 -0.08990
H13I H 0.58990 0.35720 -0.12620
#END

data_CSD_CIF_UKIZIZ
_audit_creation_date 2016-04-04
_audit_creation_method CSD-ConQuest-V1
_database_code_CSD UKIZIZ
_database_code_depnum_ccdc_archive 'CCDC 1440602'
_chemical_formula_sum 'C24 H54 F6 P3 Pd1'
_chemical_formula_moiety
;
C24 H54 P2 Pd1 1+,F6 P1 1-
;
_journal_coden_Cambridge 179
_journal_volume 55
_journal_year 2016
_journal_page_first 3754
_journal_name_full 'Angew.Chem.,Int.Ed. '
loop_
_publ_author_name
"T.Troadec"
"Sze-yin Tan"
"C.J.Wedge"
"J.P.Rourke"
"P.R.Unwin"
"A.B.Chaplin"
_chemical_name_systematic
;
bis(tri-t-butylphosphine)-palladium hexafluorophosphate
;
_cell_volume   3096.795
_exptl_crystal_colour 'blue'
_exptl_crystal_density_diffrn 1.407
_exptl_crystal_description 'cube'
_diffrn_ambient_temperature 150
#These two values have been output from a single CSD field.
_refine_ls_R_factor_gt 0.0222
_refine_ls_wR_factor_gt 0.0222
_symmetry_cell_setting cubic
_symmetry_space_group_name_H-M 'P a -3'
_symmetry_Int_Tables_number 205
loop_
_symmetry_equiv_pos_site_id
_symmetry_equiv_pos_as_xyz
1 x,y,z
2 1/2-x,-y,1/2+z
3 -x,1/2+y,1/2-z
4 1/2+x,1/2-y,-z
5 z,x,y
6 1/2+z,1/2-x,-y
7 1/2-z,-x,1/2+y
8 -z,1/2+x,1/2-y
9 y,z,x
10 -y,1/2+z,1/2-x
11 1/2+y,1/2-z,-x
12 1/2-y,-z,1/2+x
13 -x,-y,-z
14 -1/2+x,y,-1/2-z
15 x,-1/2-y,-1/2+z
16 -1/2-x,-1/2+y,z
17 -z,-x,-y
18 -1/2-z,-1/2+x,y
19 -1/2+z,x,-1/2-y
20 z,-1/2-x,-1/2+y
21 -y,-z,-x
22 y,-1/2-z,-1/2+x
23 -1/2-y,-1/2+z,x
24 -1/2+y,z,-1/2-x
_cell_length_a 14.57597(5)
_cell_length_b 14.57597(5)
_cell_length_c 14.57597(5)
_cell_angle_alpha 90
_cell_angle_beta 90
_cell_angle_gamma 90
_cell_formula_units_Z 4
loop_
_atom_type_symbol
_atom_type_radius_bond
C 0.68
H 0.23
F 0.64
P 1.05
Pd 1.39
loop_
_atom_site_label
_atom_site_type_symbol
_atom_site_fract_x
_atom_site_fract_y
_atom_site_fract_z
Pd1 Pd 0.50000 0.50000 0.50000
P1 P 0.59296(2) 0.59296(2) 0.59296(2)
C1 C 0.6660(1) 0.51666(9) 0.66888(10)
C2 C 0.60593(12) 0.43616(11) 0.70266(13)
H1 H 0.55920 0.45930 0.74510
H2 H 0.64460 0.39110 0.73420
H3 H 0.57590 0.40700 0.65010
C3 C 0.70978(11) 0.56494(11) 0.75127(10)
H4 H 0.74700 0.61670 0.72980
H5 H 0.74890 0.52150 0.78450
H6 H 0.66150 0.58750 0.79230
C4 C 0.74211(11) 0.47291(12) 0.61035(14)
H7 H 0.71490 0.44400 0.55610
H8 H 0.77440 0.42650 0.64670
H9 H 0.78560 0.52040 0.59100
P2 P 1.00000 0.50000 0.50000
F1 F 0.96682(7) 0.44832(6) 0.59114(6)
C1D C 0.66888(10) 0.66600(9) 0.51666(10)
C2D C 0.70266(12) 0.60593(11) 0.43616(13)
H1D H 0.74510 0.55920 0.45930
H2D H 0.73420 0.64460 0.39110
H3D H 0.65010 0.57590 0.40700
C3D C 0.75127(11) 0.70978(11) 0.56494(10)
H4D H 0.72980 0.74700 0.61670
H5D H 0.78450 0.74890 0.52150
H6D H 0.79230 0.66150 0.58750
C4D C 0.61035(11) 0.74211(12) 0.47291(14)
H7D H 0.55610 0.71490 0.44400
H8D H 0.64670 0.77440 0.42650
H9D H 0.59100 0.78560 0.52040
C1H C 0.51666(10) 0.66888(9) 0.6660(1)
C2H C 0.43616(12) 0.70266(11) 0.60593(13)
H1H H 0.45930 0.74510 0.55920
H2H H 0.39110 0.73420 0.64460
H3H H 0.40700 0.65010 0.57590
C3H C 0.56494(11) 0.75127(11) 0.70978(10)
H4H H 0.61670 0.72980 0.74700
H5H H 0.52150 0.78450 0.74890
H6H H 0.58750 0.79230 0.66150
C4H C 0.47291(11) 0.61035(12) 0.74211(14)
H7H H 0.44400 0.55610 0.71490
H8H H 0.42650 0.64670 0.77440
H9H H 0.52040 0.59100 0.78560
P1L P 0.40704(2) 0.40704(2) 0.40704(2)
C1L C 0.3340(1) 0.48334(9) 0.33112(10)
C2L C 0.39407(12) 0.56384(11) 0.29734(13)
H1L H 0.44080 0.54070 0.25490
H2L H 0.35540 0.60890 0.26580
H3L H 0.42410 0.59300 0.34990
C3L C 0.29022(11) 0.43506(11) 0.24873(10)
H4L H 0.25300 0.38330 0.27020
H5L H 0.25110 0.47850 0.21550
H6L H 0.33850 0.41250 0.20770
C4L C 0.25789(11) 0.52709(12) 0.38965(14)
H7L H 0.28510 0.55600 0.44390
H8L H 0.22560 0.57350 0.35330
H9L H 0.21440 0.47960 0.40900
C1P C 0.33112(10) 0.33400(9) 0.48334(10)
C2P C 0.29734(12) 0.39407(11) 0.56384(13)
H1P H 0.25490 0.44080 0.54070
H2P H 0.26580 0.35540 0.60890
H3P H 0.34990 0.42410 0.59300
C3P C 0.24873(11) 0.29022(11) 0.43506(10)
H4P H 0.27020 0.25300 0.38330
H5P H 0.21550 0.25110 0.47850
H6P H 0.20770 0.33850 0.41250
C4P C 0.38965(11) 0.25789(12) 0.52709(14)
H7P H 0.44390 0.28510 0.55600
H8P H 0.35330 0.22560 0.57350
H9P H 0.40900 0.21440 0.47960
C1T C 0.48334(10) 0.33112(9) 0.3340(1)
C2T C 0.56384(12) 0.29734(11) 0.39407(13)
H1T H 0.54070 0.25490 0.44080
H2T H 0.60890 0.26580 0.35540
H3T H 0.59300 0.34990 0.42410
C3T C 0.43506(11) 0.24873(11) 0.29022(10)
H4T H 0.38330 0.27020 0.25300
H5T H 0.47850 0.21550 0.25110
H6T H 0.41250 0.20770 0.33850
C4T C 0.52709(11) 0.38965(12) 0.25789(14)
H7T H 0.55600 0.44390 0.28510
H8T H 0.57350 0.35330 0.22560
H9T H 0.47960 0.40900 0.21440
F1E F 1.09114(7) 0.53318(6) 0.55168(6)
F1K F 1.05168(7) 0.40886(6) 0.46682(6)
F1L F 1.03318(7) 0.55168(6) 0.40886(6)
F1Q F 0.90886(7) 0.46682(6) 0.44832(6)
F1W F 0.94832(7) 0.59114(6) 0.53318(6)
#END

data_CSD_CIF_VADRAU
_audit_creation_date 2003-03-19
_audit_creation_method CSD-ConQuest-V1
_database_code_CSD VADRAU
_database_code_depnum_ccdc_archive 'CCDC 202969'
_chemical_formula_sum 'C4 H12 Pb1'
_chemical_formula_moiety
;
C4 H12 Pb1
;
_journal_coeditor_code "IUCr YA6144"
_journal_coden_Cambridge 1370
_journal_volume 59
_journal_year 2003
_journal_page_first m11
_journal_name_full 'Acta Crystallogr.,Sect.E:Struct.Rep.Online '
loop_
_publ_author_name
"H.Fleischer"
"S.Parsons"
"C.R.Pulham"
_chemical_name_systematic
;
Tetramethyl-lead(iv)
;
_chemical_name_common
;
Teaching Subset: Fundamental Chemistry, Symmetry
;
_chemical_melting_point 243
_cell_volume   1394.605
_exptl_crystal_colour 'colorless'
_exptl_crystal_density_diffrn 2.546
_exptl_special_details
;
isostructural with the Sn analogue

;
_exptl_crystal_description 'cylinder'
_diffrn_ambient_temperature 150
#These two values have been output from a single CSD field.
_refine_ls_R_factor_gt 0.033
_refine_ls_wR_factor_gt 0.033
_symmetry_cell_setting cubic
_symmetry_space_group_name_H-M 'P a -3'
_symmetry_Int_Tables_number 205
loop_
_symmetry_equiv_pos_site_id
_symmetry_equiv_pos_as_xyz
1 x,y,z
2 y,z,x
3 z,x,y
4 1/2-x,-y,1/2+z
5 1/2-y,-z,1/2+x
6 1/2-z,-x,1/2+y
7 1/2+y,1/2-z,-x
8 1/2+z,1/2-x,-y
9 -z,1/2+x,1/2-y
10 -x,1/2+y,1/2-z
11 -y,1/2+z,1/2-x
12 1/2+x,1/2-y,-z
13 -x,-y,-z
14 -y,-z,-x
15 -z,-x,-y
16 -1/2+x,y,-1/2-z
17 -1/2+y,z,-1/2-x
18 -1/2+z,x,-1/2-y
19 -1/2-y,-1/2+z,x
20 -1/2-z,-1/2+x,y
21 z,-1/2-x,-1/2+y
22 x,-1/2-y,-1/2+z
23 y,-1/2-z,-1/2+x
24 -1/2-x,-1/2+y,z
_cell_length_a 11.1725(6)
_cell_length_b 11.1725(6)
_cell_length_c 11.1725(6)
_cell_angle_alpha 90
_cell_angle_beta 90
_cell_angle_gamma 90
_cell_formula_units_Z 8
loop_
_atom_type_symbol
_atom_type_radius_bond
C 0.68
H 0.23
Pb 1.54
loop_
_atom_site_label
_atom_site_type_symbol
_atom_site_fract_x
_atom_site_fract_y
_atom_site_fract_z
Pb1 Pb 0.872030(14) 0.372030(14) 0.127970(14)
C1 C 0.7586(8) 0.2586(8) 0.2414(8)
C2 C 0.9865(8) 0.2561(6) 0.0148(5)
H1 H 0.70710 0.31090 0.29210
H2 H 1.03900 0.30650 -0.03700
H3 H 1.03820 0.20430 0.06750
H4 H 0.93530 0.20350 -0.03630
H1F H 0.81090 0.20790 0.29290
H1H H 0.70790 0.20710 0.18910
C2F C 0.7561(8) 0.4852(6) 0.0135(5)
H2F H 0.80650 0.53700 -0.03900
H3F H 0.70430 0.43250 -0.03820
H4F H 0.70350 0.53630 0.06470
C2H C 0.9852(8) 0.4865(6) 0.2439(5)
H2H H 1.03700 0.53900 0.19350
H3H H 0.93250 0.53820 0.29570
H4H H 1.03630 0.43530 0.29650
#END

data_CSD_CIF_VIKRIR
_audit_creation_date 2008-01-22
_audit_creation_method CSD-ConQuest-V1
_database_code_CSD VIKRIR
_database_code_depnum_ccdc_archive 'CCDC 643469'
_chemical_formula_sum 'C18 H42 Cu2 Fe6 N6 O6 P2 S6'
_chemical_formula_moiety
;
C18 H42 Cu2 Fe6 N6 O6 P2 S6
;
_journal_coden_Cambridge 580
_journal_volume 26
_journal_year 2007
_journal_page_first 4765
_journal_name_full 'Polyhedron '
loop_
_publ_author_name
"H.Kalyvas"
"D.Coucouvanis"
_chemical_name_systematic
;
hexakis(\m~4~-Sulfido)-hexanitrosyl-bis(tripropylphosphine)-hexa-iron-di-coppe
r
;
_cell_volume   4025.825
_exptl_crystal_colour 'black'
_exptl_crystal_density_diffrn 1.906
_exptl_crystal_description 'polyhedron'
_exptl_crystal_preparation 'tetrahydrofuran/ether/hexanes'
_diffrn_ambient_temperature 108
#These two values have been output from a single CSD field.
_refine_ls_R_factor_gt 0.0134
_refine_ls_wR_factor_gt 0.0134
_symmetry_cell_setting cubic
_symmetry_space_group_name_H-M 'P a -3'
_symmetry_Int_Tables_number 205
loop_
_symmetry_equiv_pos_site_id
_symmetry_equiv_pos_as_xyz
1 x,y,z
2 z,x,y
3 y,z,x
4 1/2-x,-y,1/2+z
5 -x,1/2+y,1/2-z
6 1/2+x,1/2-y,-z
7 1/2+z,1/2-x,-y
8 1/2-z,-x,1/2+y
9 -z,1/2+x,1/2-y
10 -y,1/2+z,1/2-x
11 1/2+y,1/2-z,-x
12 1/2-y,-z,1/2+x
13 -x,-y,-z
14 -z,-x,-y
15 -y,-z,-x
16 -1/2+x,y,-1/2-z
17 x,-1/2-y,-1/2+z
18 -1/2-x,-1/2+y,z
19 -1/2-z,-1/2+x,y
20 -1/2+z,x,-1/2-y
21 z,-1/2-x,-1/2+y
22 y,-1/2-z,-1/2+x
23 -1/2-y,-1/2+z,x
24 -1/2+y,z,-1/2-x
_cell_length_a 15.9081(9)
_cell_length_b 15.9081(9)
_cell_length_c 15.9081(9)
_cell_angle_alpha 90
_cell_angle_beta 90
_cell_angle_gamma 90
_cell_formula_units_Z 4
loop_
_atom_type_symbol
_atom_type_radius_bond
C 0.68
H 0.23
Cu 1.23
Fe 1.05
N 0.68
O 0.68
P 1.05
S 1.02
loop_
_atom_site_label
_atom_site_type_symbol
_atom_site_fract_x
_atom_site_fract_y
_atom_site_fract_z
Cu1 Cu 0.088571(8) 0.588571(8) 0.911430(8)
Fe1 Fe -0.110250(9) 0.449430(9) 0.924660(9)
S1 S -0.030574(16) 0.530117(16) 0.842291(15)
P1 P 0.170098(16) 0.670098(16) 0.829902(16)
O1 O -0.24168(6) 0.39070(6) 0.81915(6)
N1 N -0.19032(6) 0.41193(6) 0.86741(6)
C1 C 0.28269(7) 0.64719(7) 0.83733(7)
H1 H 0.29180 0.58660 0.82670
H2 H 0.31290 0.67900 0.79320
C2 C 0.31947(7) 0.66998(8) 0.92315(8)
H3 H 0.31550 0.73150 0.93140
H4 H 0.28580 0.64250 0.96770
C3 C 0.41090(8) 0.64293(9) 0.93156(10)
H5 H 0.41470 0.58160 0.92660
H6 H 0.43250 0.66050 0.98650
H7 H 0.44430 0.66930 0.88700
Cu1T Cu -0.088570(8) 0.411429(8) 1.088571(8)
Fe1V Fe 0.050570(9) 0.424660(9) 0.889750(9)
Fe1T Fe -0.075340(9) 0.610250(9) 0.949430(9)
Fe1J Fe -0.050570(9) 0.575340(9) 1.110250(9)
Fe1H Fe 0.075340(9) 0.389750(9) 1.050570(9)
Fe1L Fe 0.110250(9) 0.550570(9) 1.075340(9)
S1T S -0.157709(16) 0.530574(16) 1.030117(15)
S1V S -0.030117(16) 0.342291(16) 0.969426(15)
S1J S 0.030117(16) 0.657709(16) 1.030574(15)
S1H S 0.157709(16) 0.469426(16) 0.969883(15)
S1L S 0.030574(16) 0.469883(16) 1.157709(15)
P1T P -0.170098(16) 0.329902(16) 1.170098(16)
O1V O 0.10930(6) 0.31915(6) 0.75832(6)
O1T O -0.18085(6) 0.74168(6) 0.89070(6)
O1L O 0.24168(6) 0.60930(6) 1.18085(6)
O1J O -0.10930(6) 0.68085(6) 1.24168(6)
O1H O 0.18085(6) 0.25832(6) 1.10930(6)
N1V N 0.08807(6) 0.36741(6) 0.80968(6)
N1T N -0.13259(6) 0.69032(6) 0.91193(6)
N1L N 0.19032(6) 0.58807(6) 1.13259(6)
N1J N -0.08807(6) 0.63259(6) 1.19032(6)
N1H N 0.13259(6) 0.30968(6) 1.08807(6)
C1T C -0.16267(7) 0.21731(7) 1.14719(7)
C1V C -0.14719(7) 0.33733(7) 1.28269(7)
C1L C -0.28269(7) 0.35281(7) 1.16267(7)
C1H C 0.16267(7) 0.78269(7) 0.85281(7)
C1J C 0.14719(7) 0.66267(7) 0.71731(7)
H1T H -0.17330 0.20820 1.08660
H1V H -0.08660 0.32670 1.29180
H1L H -0.29180 0.41340 1.17330
H1H H 0.17330 0.79180 0.91340
H1J H 0.08660 0.67330 0.70820
H2T H -0.20680 0.18710 1.17900
H2V H -0.17900 0.29320 1.31290
H2L H -0.31290 0.32100 1.20680
H2H H 0.20680 0.81290 0.82100
H2J H 0.17900 0.70680 0.68710
C2T C -0.07685(7) 0.18053(8) 1.16998(8)
C2V C -0.16998(7) 0.42315(8) 1.31947(8)
C2L C -0.31947(7) 0.33002(8) 1.07685(8)
C2H C 0.07685(7) 0.81947(8) 0.83002(8)
C2J C 0.16998(7) 0.57685(8) 0.68053(8)
H3T H -0.06860 0.18450 1.23150
H3V H -0.23150 0.43140 1.31550
H3L H -0.31550 0.26850 1.06860
H3H H 0.06860 0.81550 0.76850
H3J H 0.23150 0.56860 0.68450
H4T H -0.03230 0.21420 1.14250
H4V H -0.14250 0.46770 1.28580
H4L H -0.28580 0.35750 1.03230
H4H H 0.03230 0.78580 0.85750
H4J H 0.14250 0.53230 0.71420
C3T C -0.06844(8) 0.08910(9) 1.14293(10)
C3V C -0.14293(8) 0.43156(9) 1.4109(1)
C3L C -0.41090(8) 0.35707(9) 1.06844(10)
C3H C 0.06844(8) 0.91090(9) 0.85707(10)
C3J C 0.14293(8) 0.56844(9) 0.5891(1)
H5T H -0.07340 0.08530 1.08160
H5V H -0.08160 0.42660 1.41470
H5L H -0.41470 0.41840 1.07340
H5H H 0.07340 0.91470 0.91840
H5J H 0.08160 0.57340 0.58530
H6T H -0.01350 0.06750 1.16050
H6V H -0.16050 0.48650 1.43250
H6L H -0.43250 0.33950 1.01350
H6H H 0.01350 0.93250 0.83950
H6J H 0.16050 0.51350 0.56750
H7T H -0.11300 0.05570 1.16930
H7V H -0.16930 0.38700 1.44430
H7L H -0.44430 0.33070 1.11300
H7H H 0.11300 0.94430 0.83070
H7J H 0.16930 0.61300 0.55570
#END

data_CSD_CIF_VIKSAK
_audit_creation_date 2008-01-22
_audit_creation_method CSD-ConQuest-V1
_database_code_CSD VIKSAK
_database_code_depnum_ccdc_archive 'CCDC 643472'
_chemical_formula_sum 'C18 H42 Fe6 N6 Ni2 O6 P2 S6'
_chemical_formula_moiety
;
C18 H42 Fe6 N6 Ni2 O6 P2 S6
;
_journal_coden_Cambridge 580
_journal_volume 26
_journal_year 2007
_journal_page_first 4765
_journal_name_full 'Polyhedron '
loop_
_publ_author_name
"H.Kalyvas"
"D.Coucouvanis"
_chemical_name_systematic
;
hexakis(\m~4~-Sulfido)-hexanitrosyl-bis(tripropylphosphine)-hexa-iron-di-nicke
l
;
_cell_volume   3927.336
_exptl_crystal_colour 'black'
_exptl_crystal_density_diffrn 1.937
_exptl_crystal_description 'polyhedron'
_exptl_crystal_preparation 'tetrahydrofuran/hexanes'
_diffrn_ambient_temperature 108
#These two values have been output from a single CSD field.
_refine_ls_R_factor_gt 0.0147
_refine_ls_wR_factor_gt 0.0147
_symmetry_cell_setting cubic
_symmetry_space_group_name_H-M 'P a -3'
_symmetry_Int_Tables_number 205
loop_
_symmetry_equiv_pos_site_id
_symmetry_equiv_pos_as_xyz
1 x,y,z
2 z,x,y
3 y,z,x
4 1/2-x,-y,1/2+z
5 -x,1/2+y,1/2-z
6 1/2+x,1/2-y,-z
7 1/2+z,1/2-x,-y
8 1/2-z,-x,1/2+y
9 -z,1/2+x,1/2-y
10 -y,1/2+z,1/2-x
11 1/2+y,1/2-z,-x
12 1/2-y,-z,1/2+x
13 -x,-y,-z
14 -z,-x,-y
15 -y,-z,-x
16 -1/2+x,y,-1/2-z
17 x,-1/2-y,-1/2+z
18 -1/2-x,-1/2+y,z
19 -1/2-z,-1/2+x,y
20 -1/2+z,x,-1/2-y
21 z,-1/2-x,-1/2+y
22 y,-1/2-z,-1/2+x
23 -1/2-y,-1/2+z,x
24 -1/2+y,z,-1/2-x
_cell_length_a 15.7773(10)
_cell_length_b 15.7773(10)
_cell_length_c 15.7773(10)
_cell_angle_alpha 90
_cell_angle_beta 90
_cell_angle_gamma 90
_cell_formula_units_Z 4
loop_
_atom_type_symbol
_atom_type_radius_bond
C 0.68
H 0.23
Fe 0.95
N 0.68
Ni 1.22
O 0.68
P 1.05
S 1.02
loop_
_atom_site_label
_atom_site_type_symbol
_atom_site_fract_x
_atom_site_fract_y
_atom_site_fract_z
Ni1 Ni 0.079466(9) 0.420534(9) 0.579466(9)
Fe1 Fe -0.10943(1) 0.55380(1) 0.57964(1)
P1 P 0.160908(17) 0.339092(17) 0.660908(17)
S1 S -0.026645(17) 0.471466(17) 0.659968(16)
O1 O -0.23627(6) 0.61412(6) 0.69252(6)
N1 N -0.18654(6) 0.59169(6) 0.64209(6)
C1 C 0.15342(7) 0.22545(7) 0.63787(7)
H1 H 0.16060 0.21670 0.57620
H2 H 0.20030 0.19560 0.66700
C2 C 0.06921(8) 0.18644(8) 0.66565(8)
H3 H 0.06390 0.19100 0.72800
H4 H 0.02200 0.21870 0.63980
C3 C 0.06221(9) 0.09362(8) 0.63979(9)
H5 H 0.06530 0.08910 0.57790
H6 H 0.00800 0.07070 0.65950
H7 H 0.10880 0.06140 0.66530
Ni1R Ni -0.079466(9) 0.579466(9) 0.420534(9)
Fe1W Fe 0.05380(1) 0.57964(1) 0.60943(1)
Fe1R Fe -0.07964(1) 0.39057(1) 0.55380(1)
Fe1K Fe -0.05380(1) 0.42036(1) 0.39057(1)
Fe1F Fe 0.07964(1) 0.60943(1) 0.44620(1)
Fe1L Fe 0.10943(1) 0.44620(1) 0.42036(1)
P1R P -0.160908(17) 0.660908(17) 0.339092(17)
S1R S -0.159968(17) 0.473355(17) 0.471466(16)
S1W S -0.028534(17) 0.659968(17) 0.526645(16)
S1K S 0.028534(17) 0.340032(17) 0.473355(16)
S1F S 0.159968(17) 0.526645(17) 0.528534(16)
S1L S 0.026645(17) 0.528534(17) 0.340032(16)
O1W O 0.11412(6) 0.69252(6) 0.73627(6)
O1R O -0.19252(6) 0.26373(6) 0.61412(6)
O1L O 0.23627(6) 0.38588(6) 0.30748(6)
O1K O -0.11412(6) 0.30748(6) 0.26373(6)
O1F O 0.19252(6) 0.73627(6) 0.38588(6)
N1W N 0.09169(6) 0.64209(6) 0.68654(6)
N1R N -0.14209(6) 0.31346(6) 0.59169(6)
N1L N 0.18654(6) 0.40831(6) 0.35791(6)
N1K N -0.09169(6) 0.35791(6) 0.31346(6)
N1F N 0.14209(6) 0.68654(6) 0.40831(6)
C1F C 0.13787(7) 0.34658(7) 0.77455(7)
C1K C 0.27455(7) 0.36213(7) 0.65342(7)
C1R C -0.13787(7) 0.65342(7) 0.22545(7)
C1W C -0.27455(7) 0.63787(7) 0.34658(7)
C1L C -0.15342(7) 0.77455(7) 0.36213(7)
H1F H 0.07620 0.33940 0.78330
H1K H 0.28330 0.42380 0.66060
H1R H -0.07620 0.66060 0.21670
H1W H -0.28330 0.57620 0.33940
H1L H -0.16060 0.78330 0.42380
H2F H 0.16700 0.29970 0.80440
H2K H 0.30440 0.33300 0.70030
H2R H -0.16700 0.70030 0.19560
H2W H -0.30440 0.66700 0.29970
H2L H -0.20030 0.80440 0.33300
C2F C 0.16565(8) 0.43079(8) 0.81356(8)
C2K C 0.31356(8) 0.33435(8) 0.56921(8)
C2R C -0.16565(8) 0.56921(8) 0.18644(8)
C2W C -0.31356(8) 0.66565(8) 0.43079(8)
C2L C -0.06921(8) 0.81356(8) 0.33435(8)
H3F H 0.22800 0.43610 0.80900
H3K H 0.30900 0.27200 0.56390
H3R H -0.22800 0.56390 0.19100
H3W H -0.30900 0.72800 0.43610
H3L H -0.06390 0.80900 0.27200
H4F H 0.13980 0.47800 0.78130
H4K H 0.28130 0.36020 0.52200
H4R H -0.13980 0.52200 0.21870
H4W H -0.28130 0.63980 0.47800
H4L H -0.02200 0.78130 0.36020
C3F C 0.13979(9) 0.43779(8) 0.90638(9)
C3K C 0.40638(9) 0.36021(8) 0.56221(9)
C3R C -0.13979(9) 0.56221(8) 0.09362(9)
C3W C -0.40638(9) 0.63979(8) 0.43779(9)
C3L C -0.06221(9) 0.90638(8) 0.36021(9)
H5F H 0.07790 0.43470 0.91090
H5K H 0.41090 0.42210 0.56530
H5R H -0.07790 0.56530 0.08910
H5W H -0.41090 0.57790 0.43470
H5L H -0.06530 0.91090 0.42210
H6F H 0.15950 0.49200 0.92930
H6K H 0.42930 0.34050 0.50800
H6R H -0.15950 0.50800 0.07070
H6W H -0.42930 0.65950 0.49200
H6L H -0.00800 0.92930 0.34050
H7F H 0.16530 0.39120 0.93860
H7K H 0.43860 0.33470 0.60880
H7R H -0.16530 0.60880 0.06140
H7W H -0.43860 0.66530 0.39120
H7L H -0.10880 0.93860 0.33470
#END

data_CSD_CIF_VIKSEO
_audit_creation_date 2008-01-22
_audit_creation_method CSD-ConQuest-V1
_database_code_CSD VIKSEO
_database_code_depnum_ccdc_archive 'CCDC 643473'
_chemical_formula_sum 'C27 H63 Fe4 N4 Ni3 O4 P3 S6'
_chemical_formula_moiety
;
C27 H63 Fe4 N4 Ni3 O4 P3 S6
;
_journal_coden_Cambridge 580
_journal_volume 26
_journal_year 2007
_journal_page_first 4765
_journal_name_full 'Polyhedron '
loop_
_publ_author_name
"H.Kalyvas"
"D.Coucouvanis"
_chemical_name_systematic
;
tris(\m~4~-Sulfido)-tris(\m~3~-sulfido)-tetranitrosyl-tris(tripropylphosphine)
-tetra-iron-tri-nickel
;
_cell_volume   9764.804
_exptl_crystal_colour 'black'
_exptl_crystal_density_diffrn 1.622
_exptl_crystal_description 'block'
_exptl_crystal_preparation 'tetrahydrofuran/hexanes'
_diffrn_ambient_temperature 108
#These two values have been output from a single CSD field.
_refine_ls_R_factor_gt 0.0199
_refine_ls_wR_factor_gt 0.0199
_symmetry_cell_setting cubic
_symmetry_space_group_name_H-M 'P a -3'
_symmetry_Int_Tables_number 205
loop_
_symmetry_equiv_pos_site_id
_symmetry_equiv_pos_as_xyz
1 x,y,z
2 z,x,y
3 y,z,x
4 1/2-x,-y,1/2+z
5 -x,1/2+y,1/2-z
6 1/2+x,1/2-y,-z
7 1/2+z,1/2-x,-y
8 1/2-z,-x,1/2+y
9 -z,1/2+x,1/2-y
10 -y,1/2+z,1/2-x
11 1/2+y,1/2-z,-x
12 1/2-y,-z,1/2+x
13 -x,-y,-z
14 -z,-x,-y
15 -y,-z,-x
16 -1/2+x,y,-1/2-z
17 x,-1/2-y,-1/2+z
18 -1/2-x,-1/2+y,z
19 -1/2-z,-1/2+x,y
20 -1/2+z,x,-1/2-y
21 z,-1/2-x,-1/2+y
22 y,-1/2-z,-1/2+x
23 -1/2-y,-1/2+z,x
24 -1/2+y,z,-1/2-x
_cell_length_a 21.3741(18)
_cell_length_b 21.3741(18)
_cell_length_c 21.3741(18)
_cell_angle_alpha 90
_cell_angle_beta 90
_cell_angle_gamma 90
_cell_formula_units_Z 8
loop_
_atom_type_symbol
_atom_type_radius_bond
C 0.68
H 0.23
Fe 1.05
N 0.68
Ni 1.15
O 0.68
P 1.05
S 1.02
loop_
_atom_site_label
_atom_site_type_symbol
_atom_site_fract_x
_atom_site_fract_y
_atom_site_fract_z
Ni1 Ni 0.837911(10) 0.231418(10) 0.21916(1)
Fe1 Fe 0.741488(11) 0.161954(11) 0.192223(11)
Fe2 Fe 0.693028(11) 0.193028(11) 0.306972(11)
S1 S 0.799989(19) 0.216688(19) 0.127292(19)
P1 P 0.92641(2) 0.18572(2) 0.19534(2)
S2 S 0.78667(2) 0.152674(19) 0.28641(2)
N1 N 0.64809(7) 0.14809(7) 0.35191(7)
N2 N 0.73217(8) 0.09258(7) 0.15760(8)
O1 O 0.73350(9) 0.04752(7) 0.12547(8)
C1 C 0.96553(9) 0.22043(10) 0.12763(9)
H1 H 1.00980 0.20690 0.12730
H2 H 0.94560 0.20460 0.08900
C2 C 0.98484(8) 0.18559(9) 0.25798(8)
H3 H 1.02470 0.16880 0.24150
H4 H 0.99240 0.22920 0.27170
C3 C 0.9731(1) 0.06554(10) 0.15905(11)
H5 H 0.99210 0.08260 0.12040
H6 H 1.00400 0.06970 0.19330
C4 C 0.91440(9) 0.10330(9) 0.17533(9)
H7 H 0.89340 0.08270 0.21110
H8 H 0.88540 0.10130 0.13920
O2 O 0.61608(6) 0.11608(6) 0.38392(6)
C5 C 0.96314(11) 0.29167(10) 0.12736(10)
H9 H 0.97830 0.30760 0.16810
H10 H 0.91920 0.30550 0.12210
C6 C 0.95773(13) -0.00357(11) 0.14936(12)
H11 H 0.93990 -0.02080 0.18790
H12 H 0.99600 -0.02640 0.13870
H13 H 0.92740 -0.00780 0.11530
C7 C 1.00302(15) 0.31927(13) 0.07494(13)
H14 H 1.04660 0.30580 0.08020
H15 H 1.00080 0.36500 0.07650
H16 H 0.98730 0.30460 0.03440
C8 C 0.96443(8) 0.14639(9) 0.31444(9)
H17 H 0.92030 0.15620 0.32440
H18 H 0.96680 0.10150 0.30320
C9 C 1.00429(10) 0.15796(10) 0.37232(9)
H19 H 1.04830 0.14950 0.36250
H20 H 0.99050 0.13020 0.40610
H21 H 0.99970 0.20160 0.38550
Ni1J Ni 0.731418(10) 0.28084(1) 0.162089(10)
Ni1H Ni 0.78084(1) 0.337911(10) 0.268582(10)
Fe1J Fe 0.661954(11) 0.307777(11) 0.258512(11)
Fe1H Fe 0.807777(11) 0.241488(11) 0.338046(11)
S1J S 0.716688(19) 0.372708(19) 0.200011(19)
S1H S 0.872708(19) 0.299989(19) 0.283312(19)
P1J P 0.68572(2) 0.30466(2) 0.07359(2)
P1H P 0.80466(2) 0.42641(2) 0.31428(2)
S2J S 0.652674(20) 0.213590(19) 0.21333(2)
S2H S 0.71359(2) 0.286670(19) 0.347326(20)
N2H N 0.84240(8) 0.23217(7) 0.40742(8)
N2J N 0.59258(8) 0.34240(7) 0.26783(8)
O1H O 0.87453(9) 0.23350(7) 0.45248(8)
O1J O 0.54752(9) 0.37453(7) 0.26650(8)
C1J C 0.72043(9) 0.37237(10) 0.03447(9)
C1H C 0.87237(9) 0.46553(10) 0.27957(9)
H1J H 0.70690 0.37270 -0.00980
H1H H 0.87270 0.50980 0.29310
H2J H 0.70460 0.41100 0.05440
H2H H 0.91100 0.44560 0.29540
C2J C 0.68559(8) 0.24202(9) 0.01516(8)
C2H C 0.74202(8) 0.48484(9) 0.31441(8)
H3J H 0.66880 0.25850 -0.02470
H3H H 0.75850 0.52470 0.33120
H4J H 0.72920 0.22830 0.00760
H4H H 0.72830 0.49240 0.27080
C3J C 0.56554(10) 0.34095(10) 0.02690(11)
C3H C 0.84095(10) 0.4731(1) 0.43446(11)
H5J H 0.58260 0.37960 0.00790
H5H H 0.87960 0.49210 0.41740
H6J H 0.56970 0.30670 -0.00400
H6H H 0.80670 0.50400 0.43030
C4J C 0.60330(9) 0.32467(9) 0.08560(9)
C4H C 0.82467(9) 0.41440(9) 0.39670(9)
H7J H 0.58270 0.28890 0.10660
H7H H 0.78890 0.39340 0.41730
H8J H 0.60130 0.36080 0.11460
H8H H 0.86080 0.38540 0.39870
C5J C 0.79167(11) 0.37264(10) 0.03686(10)
C5H C 0.87264(11) 0.46314(10) 0.20833(10)
H9J H 0.80760 0.33190 0.02170
H9H H 0.83190 0.47830 0.19240
H10J H 0.80550 0.37790 0.08080
H10H H 0.87790 0.41920 0.19450
C6J C 0.49643(13) 0.35064(11) 0.04227(12)
C6H C 0.85064(13) 0.45773(11) 0.50357(12)
H11J H 0.47920 0.31210 0.06010
H11H H 0.81210 0.43990 0.52080
H12J H 0.47360 0.36130 0.00400
H12H H 0.86130 0.49600 0.52640
H13J H 0.49220 0.38470 0.07260
H13H H 0.88470 0.42740 0.50780
C7J C 0.81927(15) 0.42506(13) -0.00302(13)
C7H C 0.92506(15) 0.50302(13) 0.18073(13)
H14J H 0.80580 0.41980 -0.04660
H14H H 0.91980 0.54660 0.19420
H15J H 0.86500 0.42350 -0.00080
H15H H 0.92350 0.50080 0.13500
H16J H 0.80460 0.46560 0.01270
H16H H 0.96560 0.48730 0.19540
C8J C 0.64639(8) 0.18556(9) 0.03557(9)
C8H C 0.68556(8) 0.46443(9) 0.35361(9)
H17J H 0.65620 0.17560 0.07970
H17H H 0.67560 0.42030 0.34380
H18J H 0.60150 0.19680 0.03320
H18H H 0.69680 0.46680 0.39850
C9J C 0.65796(10) 0.12768(10) -0.00429(9)
C9H C 0.62768(10) 0.50429(10) 0.34204(9)
H19J H 0.64950 0.13750 -0.04830
H19H H 0.63750 0.54830 0.35050
H20J H 0.63020 0.09390 0.00950
H20H H 0.59390 0.49050 0.36980
H21J H 0.70160 0.11450 0.00030
H21H H 0.61450 0.49970 0.29840
#END

data_CSD_CIF_VOCVOY
_audit_creation_date 1992-04-28
_audit_creation_method CSD-ConQuest-V1
_database_code_CSD VOCVOY
_chemical_formula_sum 'C72 H102 Hg1 N6 Re2'
_chemical_formula_moiety
;
C72 H102 Hg1 N6 Re2
;
_journal_coden_Cambridge 4
_journal_volume 113
_journal_year 1991
_journal_page_first 5480
_journal_name_full 'J.Am.Chem.Soc. '
loop_
_publ_author_name
"D.S.Williams"
"J.T.Anhaus"
"M.H.Schofield"
"R.R.Schrock"
"W.M.Davis"
_chemical_name_systematic
;
bis(tris(2,6-Di-isopropylphenylimido-N)-rhenium)-mercury
;
_cell_volume   7469.766
_exptl_crystal_colour 'red'
_exptl_crystal_density_diffrn 1.444
_diffrn_ambient_temperature ?
_diffrn_special_details
;
The study was carried out at room temperature,in the range 283-303K

;
#These two values have been output from a single CSD field.
_refine_ls_R_factor_gt 0.034
_refine_ls_wR_factor_gt 0.034
_symmetry_cell_setting cubic
_symmetry_space_group_name_H-M 'P a 3'
_symmetry_Int_Tables_number 205
loop_
_symmetry_equiv_pos_site_id
_symmetry_equiv_pos_as_xyz
1 x,y,z
2 z,x,y
3 y,z,x
4 1/2+x,y,1/2-z
5 1/2+z,x,1/2-y
6 1/2+y,z,1/2-x
7 1/2-x,1/2+y,z
8 1/2-z,1/2+x,y
9 1/2-y,1/2+z,x
10 -x,1/2+y,1/2-z
11 -z,1/2+x,1/2-y
12 -y,1/2+z,1/2-x
13 -x,-y,-z
14 -z,-x,-y
15 -y,-z,-x
16 -1/2-x,-y,-1/2+z
17 -1/2-z,-x,-1/2+y
18 -1/2-y,-z,-1/2+x
19 -1/2+x,-1/2-y,-z
20 -1/2+z,-1/2-x,-y
21 -1/2+y,-1/2-z,-x
22 x,-1/2-y,-1/2+z
23 z,-1/2-x,-1/2+y
24 y,-1/2-z,-1/2+x
_cell_length_a 19.548(6)
_cell_length_b 19.548(6)
_cell_length_c 19.548(6)
_cell_angle_alpha 90
_cell_angle_beta 90
_cell_angle_gamma 90
_cell_formula_units_Z 4
loop_
_atom_type_symbol
_atom_type_radius_bond
C 0.68
H 0.23
Hg 1.66
N 0.68
Re 1.35
loop_
_atom_site_label
_atom_site_type_symbol
_atom_site_fract_x
_atom_site_fract_y
_atom_site_fract_z
Hg1 Hg 0.00000 0.00000 0.00000
Re1 Re 0.07741(3) 0.07740 0.07740
N1 N 0.1258(7) 0.0115(7) 0.1150(7)
C1 C 0.166(1) -0.036(1) 0.151(1)
C2 C 0.203(1) -0.084(1) 0.115(1)
C3 C 0.242(1) -0.131(1) 0.154(2)
C4 C 0.243(1) -0.126(1) 0.224(1)
C5 C 0.205(1) -0.078(1) 0.258(1)
C6 C 0.163(1) -0.032(1) 0.223(1)
C7 C 0.205(1) -0.089(1) 0.038(1)
C8 C 0.273(1) -0.107(2) 0.007(1)
C9 C 0.147(1) -0.136(1) 0.014(1)
C10 C 0.123(1) 0.022(1) 0.259(1)
C11 C 0.098(1) -0.001(1) 0.328(1)
C12 C 0.163(1) 0.088(1) 0.269(2)
H1 H 0.27440 -0.16330 0.13040
H2 H 0.26170 -0.16170 0.25050
H3 H 0.21200 -0.07430 0.30620
H4 H 0.19290 -0.04420 0.02720
H5 H 0.29010 -0.14330 0.01590
H6 H 0.26430 -0.09770 -0.04370
H7 H 0.30340 -0.06500 0.01710
H8 H 0.10480 -0.11520 0.02900
H9 H 0.14810 -0.13230 -0.03530
H10 H 0.15250 -0.17860 0.02900
H11 H 0.09010 0.03020 0.22950
H12 H 0.06430 0.04240 0.34190
H13 H 0.06060 -0.03430 0.32190
H14 H 0.12330 -0.00670 0.36190
H15 H 0.19850 0.08170 0.30090
H16 H 0.17360 0.10700 0.23000
H17 H 0.12800 0.11740 0.29410
Re1L Re -0.07741(3) -0.07740 -0.07740
N1A N 0.1150(7) 0.1258(7) 0.0115(7)
N1B N 0.0115(7) 0.1150(7) 0.1258(7)
N1L N -0.1258(7) -0.0115(7) -0.1150(7)
N1M N -0.1150(7) -0.1258(7) -0.0115(7)
N1N N -0.0115(7) -0.1150(7) -0.1258(7)
C1A C 0.151(1) 0.166(1) -0.036(1)
C1B C -0.036(1) 0.151(1) 0.166(1)
C1L C -0.166(1) 0.036(1) -0.151(1)
C1M C -0.151(1) -0.166(1) 0.036(1)
C1N C 0.036(1) -0.151(1) -0.166(1)
C2A C 0.115(1) 0.203(1) -0.084(1)
C6A C 0.223(1) 0.163(1) -0.032(1)
C2B C -0.084(1) 0.115(1) 0.203(1)
C6B C -0.032(1) 0.223(1) 0.163(1)
C2L C -0.203(1) 0.084(1) -0.115(1)
C6L C -0.163(1) 0.032(1) -0.223(1)
C2M C -0.115(1) -0.203(1) 0.084(1)
C6M C -0.223(1) -0.163(1) 0.032(1)
C2N C 0.084(1) -0.115(1) -0.203(1)
C6N C 0.032(1) -0.223(1) -0.163(1)
C3A C 0.154(1) 0.242(1) -0.131(2)
C7A C 0.038(1) 0.205(1) -0.089(1)
C5A C 0.258(1) 0.205(1) -0.078(1)
C10A C 0.259(1) 0.123(1) 0.022(1)
C3B C -0.131(1) 0.154(1) 0.242(2)
C7B C -0.089(1) 0.038(1) 0.205(1)
C5B C -0.078(1) 0.258(1) 0.205(1)
C10B C 0.022(1) 0.259(1) 0.123(1)
C3L C -0.242(1) 0.131(1) -0.154(2)
C7L C -0.205(1) 0.089(1) -0.038(1)
C5L C -0.205(1) 0.078(1) -0.258(1)
C10L C -0.123(1) -0.022(1) -0.259(1)
C3M C -0.154(1) -0.242(1) 0.131(2)
C7M C -0.038(1) -0.205(1) 0.089(1)
C5M C -0.258(1) -0.205(1) 0.078(1)
C10M C -0.259(1) -0.123(1) -0.022(1)
C3N C 0.131(1) -0.154(1) -0.242(2)
C7N C 0.089(1) -0.038(1) -0.205(1)
C5N C 0.078(1) -0.258(1) -0.205(1)
C10N C -0.022(1) -0.259(1) -0.123(1)
C4A C 0.224(1) 0.243(1) -0.126(1)
H1A H 0.13040 0.27440 -0.16330
C8A C 0.007(1) 0.273(2) -0.107(1)
C9A C 0.014(1) 0.147(1) -0.136(1)
H4A H 0.02720 0.19290 -0.04420
H3A H 0.30620 0.21200 -0.07430
C11A C 0.328(1) 0.098(1) -0.001(1)
C12A C 0.269(1) 0.163(1) 0.088(2)
H11A H 0.22950 0.09010 0.03020
C4B C -0.126(1) 0.224(1) 0.243(1)
H1B H -0.16330 0.13040 0.27440
C8B C -0.107(1) 0.007(2) 0.273(1)
C9B C -0.136(1) 0.014(1) 0.147(1)
H4B H -0.04420 0.02720 0.19290
H3B H -0.07430 0.30620 0.21200
C11B C -0.001(1) 0.328(1) 0.098(1)
C12B C 0.088(1) 0.269(1) 0.163(2)
H11B H 0.03020 0.22950 0.09010
C4L C -0.243(1) 0.126(1) -0.224(1)
H1L H -0.27440 0.16330 -0.13040
C8L C -0.273(1) 0.107(2) -0.007(1)
C9L C -0.147(1) 0.136(1) -0.014(1)
H4L H -0.19290 0.04420 -0.02720
H3L H -0.21200 0.07430 -0.30620
C11L C -0.098(1) 0.001(1) -0.328(1)
C12L C -0.163(1) -0.088(1) -0.269(2)
H11L H -0.09010 -0.03020 -0.22950
C4M C -0.224(1) -0.243(1) 0.126(1)
H1M H -0.13040 -0.27440 0.16330
C8M C -0.007(1) -0.273(2) 0.107(1)
C9M C -0.014(1) -0.147(1) 0.136(1)
H4M H -0.02720 -0.19290 0.04420
H3M H -0.30620 -0.21200 0.07430
C11M C -0.328(1) -0.098(1) 0.001(1)
C12M C -0.269(1) -0.163(1) -0.088(2)
H11M H -0.22950 -0.09010 -0.03020
C4N C 0.126(1) -0.224(1) -0.243(1)
H1N H 0.16330 -0.13040 -0.27440
C8N C 0.107(1) -0.007(2) -0.273(1)
C9N C 0.136(1) -0.014(1) -0.147(1)
H4N H 0.04420 -0.02720 -0.19290
H3N H 0.07430 -0.30620 -0.21200
C11N C 0.001(1) -0.328(1) -0.098(1)
C12N C -0.088(1) -0.269(1) -0.163(2)
H11N H -0.03020 -0.22950 -0.09010
H2A H 0.25050 0.26170 -0.16170
H5A H 0.01590 0.29010 -0.14330
H6A H -0.04370 0.26430 -0.09770
H7A H 0.01710 0.30340 -0.06500
H8A H 0.02900 0.10480 -0.11520
H9A H -0.03530 0.14810 -0.13230
H10A H 0.02900 0.15250 -0.17860
H12A H 0.34190 0.06430 0.04240
H13A H 0.32190 0.06060 -0.03430
H14A H 0.36190 0.12330 -0.00670
H15A H 0.30090 0.19850 0.08170
H16A H 0.23000 0.17360 0.10700
H17A H 0.29410 0.12800 0.11740
H2B H -0.16170 0.25050 0.26170
H5B H -0.14330 0.01590 0.29010
H6B H -0.09770 -0.04370 0.26430
H7B H -0.06500 0.01710 0.30340
H8B H -0.11520 0.02900 0.10480
H9B H -0.13230 -0.03530 0.14810
H10B H -0.17860 0.02900 0.15250
H12B H 0.04240 0.34190 0.06430
H13B H -0.03430 0.32190 0.06060
H14B H -0.00670 0.36190 0.12330
H15B H 0.08170 0.30090 0.19850
H16B H 0.10700 0.23000 0.17360
H17B H 0.11740 0.29410 0.12800
H2L H -0.26170 0.16170 -0.25050
H5L H -0.29010 0.14330 -0.01590
H6L H -0.26430 0.09770 0.04370
H7L H -0.30340 0.06500 -0.01710
H8L H -0.10480 0.11520 -0.02900
H9L H -0.14810 0.13230 0.03530
H10L H -0.15250 0.17860 -0.02900
H12L H -0.06430 -0.04240 -0.34190
H13L H -0.06060 0.03430 -0.32190
H14L H -0.12330 0.00670 -0.36190
H15L H -0.19850 -0.08170 -0.30090
H16L H -0.17360 -0.10700 -0.23000
H17L H -0.12800 -0.11740 -0.29410
H2M H -0.25050 -0.26170 0.16170
H5M H -0.01590 -0.29010 0.14330
H6M H 0.04370 -0.26430 0.09770
H7M H -0.01710 -0.30340 0.06500
H8M H -0.02900 -0.10480 0.11520
H9M H 0.03530 -0.14810 0.13230
H10M H -0.02900 -0.15250 0.17860
H12M H -0.34190 -0.06430 -0.04240
H13M H -0.32190 -0.06060 0.03430
H14M H -0.36190 -0.12330 0.00670
H15M H -0.30090 -0.19850 -0.08170
H16M H -0.23000 -0.17360 -0.10700
H17M H -0.29410 -0.12800 -0.11740
H2N H 0.16170 -0.25050 -0.26170
H5N H 0.14330 -0.01590 -0.29010
H6N H 0.09770 0.04370 -0.26430
H7N H 0.06500 -0.01710 -0.30340
H8N H 0.11520 -0.02900 -0.10480
H9N H 0.13230 0.03530 -0.14810
H10N H 0.17860 -0.02900 -0.15250
H12N H -0.04240 -0.34190 -0.06430
H13N H 0.03430 -0.32190 -0.06060
H14N H 0.00670 -0.36190 -0.12330
H15N H -0.08170 -0.30090 -0.19850
H16N H -0.10700 -0.23000 -0.17360
H17N H -0.11740 -0.29410 -0.12800
#END

data_CSD_CIF_VODZET
_audit_creation_date 2001-12-11
_audit_creation_method CSD-ConQuest-V1
_database_code_CSD VODZET
_database_code_depnum_ccdc_archive 'CCDC 109595'
_database_code_depnum_ccdc_fiz 'CSD 408588'
_chemical_formula_sum 'C27 H69 Li1 O3 Si7'
_chemical_formula_moiety
;
C27 H69 Li1 O3 Si7
;
_journal_coden_Cambridge 179
_journal_volume 40
_journal_year 2001
_journal_page_first 3016
_journal_name_full 'Angew.Chem.,Int.Ed. '
loop_
_publ_author_name
"Y.Apeloig"
"M.Yuzefovich"
"M.Bendikov"
"D.Bravo-Zhivotovskii"
"D.Blaser"
"R.Boese"
_chemical_name_systematic
;
(tris(pentamethyldisilyl)silyl)-tris(tetrahydrofuran)-lithium
;
_cell_volume   8454.506
_exptl_crystal_density_diffrn 1.014
_diffrn_ambient_temperature 180
#These two values have been output from a single CSD field.
_refine_ls_R_factor_gt 0.0427
_refine_ls_wR_factor_gt 0.0427
_symmetry_cell_setting cubic
_symmetry_space_group_name_H-M 'P a -3'
_symmetry_Int_Tables_number 205
loop_
_symmetry_equiv_pos_site_id
_symmetry_equiv_pos_as_xyz
1 x,y,z
2 1/2-x,-y,1/2+z
3 1/2+x,1/2-y,-z
4 z,x,y
5 -x,1/2+y,1/2-z
6 1/2-z,-x,1/2+y
7 1/2+z,1/2-x,-y
8 -z,1/2+x,1/2-y
9 y,z,x
10 1/2+y,1/2-z,-x
11 -y,1/2+z,1/2-x
12 1/2-y,-z,1/2+x
13 -x,-y,-z
14 -1/2+x,y,-1/2-z
15 -1/2-x,-1/2+y,z
16 -z,-x,-y
17 x,-1/2-y,-1/2+z
18 -1/2+z,x,-1/2-y
19 -1/2-z,-1/2+x,y
20 z,-1/2-x,-1/2+y
21 -y,-z,-x
22 -1/2-y,-1/2+z,x
23 y,-1/2-z,-1/2+x
24 -1/2+y,z,-1/2-x
_cell_length_a 20.3718(72)
_cell_length_b 20.3718(72)
_cell_length_c 20.3718(72)
_cell_angle_alpha 90
_cell_angle_beta 90
_cell_angle_gamma 90
_cell_formula_units_Z 8
loop_
_atom_type_symbol
_atom_type_radius_bond
C 0.68
H 0.23
Li 1.18
O 0.68
Si 1.20
loop_
_atom_site_label
_atom_site_type_symbol
_atom_site_fract_x
_atom_site_fract_y
_atom_site_fract_z
Si1 Si 0.64322(5) 0.64322(5) 0.64322(5)
Si2 Si 0.69496(6) 0.55991(6) 0.58142(6)
Si3 Si 0.79962(6) 0.58544(6) 0.53988(6)
Li1 Li 0.72163(31) 0.72163(31) 0.72163(31)
C1 C 0.71749(24) 0.48834(21) 0.63761(23)
H1 H 0.73852(24) 0.45440(21) 0.61258(23)
H2 H 0.74704(24) 0.50397(21) 0.67082(23)
H3 H 0.67867(24) 0.47107(21) 0.65799(23)
C2 C 0.64795(25) 0.52115(25) 0.51101(23)
H4 H 0.67456(25) 0.48833(25) 0.49014(23)
H5 H 0.60879(25) 0.50117(25) 0.52797(23)
H6 H 0.63633(25) 0.55428(25) 0.47957(23)
C3 C 0.83556(26) 0.50953(24) 0.50184(24)
H7 H 0.87836(26) 0.51950(24) 0.48483(24)
H8 H 0.83915(26) 0.47599(24) 0.53475(24)
H9 H 0.80791(26) 0.49430(24) 0.46685(24)
C4 C 0.85395(21) 0.60952(23) 0.61014(21)
H10 H 0.89675(21) 0.61990(23) 0.59339(21)
H11 H 0.83624(21) 0.64711(23) 0.63237(21)
H12 H 0.85722(21) 0.57350(23) 0.64035(21)
C5 C 0.80417(22) 0.65023(22) 0.47422(21)
H13 H 0.84909(22) 0.65637(22) 0.46138(21)
H14 H 0.77902(22) 0.63591(22) 0.43703(21)
H15 H 0.78671(22) 0.69096(22) 0.49025(21)
C6 C 0.77752(25) 0.70742(23) 0.86051(22)
H16 H 0.80760(25) 0.74345(23) 0.85628(22)
H17 H 0.73727(25) 0.72316(23) 0.87929(22)
C7 C 0.80552(34) 0.65551(30) 0.90166(29)
H18 H 0.78036(34) 0.65034(30) 0.94117(29)
H19 H 0.84968(34) 0.66671(30) 0.91372(29)
C8 C 0.80642(27) 0.59424(26) 0.86324(24)
H20 H 0.77107(27) 0.56644(26) 0.87731(24)
H21 H 0.84711(27) 0.57123(26) 0.86917(24)
C9 C 0.79536(23) 0.61565(22) 0.79364(22)
H22 H 0.76807(23) 0.58475(22) 0.77081(22)
H23 H 0.83693(23) 0.61856(22) 0.77164(22)
O1 O 0.76442(13) 0.67875(13) 0.79716(13)
Si2C Si 0.58142(6) 0.69496(6) 0.55991(6)
Si3C Si 0.53988(6) 0.79962(6) 0.58544(6)
C3C C 0.50184(26) 0.83556(24) 0.50953(24)
H7C H 0.48483(26) 0.87836(24) 0.51950(24)
H8C H 0.53475(26) 0.83915(24) 0.47599(24)
H9C H 0.46685(26) 0.80791(24) 0.49430(24)
C4C C 0.61014(21) 0.85395(23) 0.60952(21)
H10C H 0.59339(21) 0.89675(23) 0.61990(21)
H11C H 0.63237(21) 0.83624(23) 0.64711(21)
H12C H 0.64035(21) 0.85722(23) 0.57350(21)
C5C C 0.47422(22) 0.80417(22) 0.65023(21)
H13C H 0.46138(22) 0.84909(22) 0.65637(21)
H14C H 0.43703(22) 0.77902(22) 0.63591(21)
H15C H 0.49025(22) 0.78671(22) 0.69096(21)
C1C C 0.63761(24) 0.71749(21) 0.48834(23)
H1C H 0.61258(24) 0.73852(21) 0.45440(23)
H2C H 0.67082(24) 0.74704(21) 0.50397(23)
H3C H 0.65799(24) 0.67867(21) 0.47107(23)
C2C C 0.51101(25) 0.64795(25) 0.52115(23)
H4C H 0.49014(25) 0.67456(25) 0.48833(23)
H5C H 0.52797(25) 0.60879(25) 0.50117(23)
H6C H 0.47957(25) 0.63633(25) 0.55428(23)
Si2H Si 0.55991(6) 0.58142(6) 0.69496(6)
Si3H Si 0.58544(6) 0.53988(6) 0.79962(6)
C3H C 0.50953(26) 0.50184(24) 0.83556(24)
H7H H 0.51950(26) 0.48483(24) 0.87836(24)
H8H H 0.47599(26) 0.53475(24) 0.83915(24)
H9H H 0.49430(26) 0.46685(24) 0.80791(24)
C4H C 0.60952(21) 0.61014(23) 0.85395(21)
H10H H 0.61990(21) 0.59339(23) 0.89675(21)
H11H H 0.64711(21) 0.63237(23) 0.83624(21)
H12H H 0.57350(21) 0.64035(23) 0.85722(21)
C5H C 0.65023(22) 0.47422(22) 0.80417(21)
H13H H 0.65637(22) 0.46138(22) 0.84909(21)
H14H H 0.63591(22) 0.43703(22) 0.77902(21)
H15H H 0.69096(22) 0.49025(22) 0.78671(21)
C1H C 0.48834(24) 0.63761(21) 0.71749(23)
H1H H 0.45440(24) 0.61258(21) 0.73852(23)
H2H H 0.50397(24) 0.67082(21) 0.74704(23)
H3H H 0.47107(24) 0.65799(21) 0.67867(23)
C2H C 0.52115(25) 0.51101(25) 0.64795(23)
H4H H 0.48833(25) 0.49014(25) 0.67456(23)
H5H H 0.50117(25) 0.52797(25) 0.60879(23)
H6H H 0.55428(25) 0.47957(25) 0.63633(23)
O1C O 0.79716(13) 0.76442(13) 0.67875(13)
C6C C 0.86051(25) 0.77752(23) 0.70742(22)
H16C H 0.85628(25) 0.80760(23) 0.74345(22)
H17C H 0.87929(25) 0.73727(23) 0.72316(22)
C7C C 0.90166(34) 0.80552(30) 0.65551(29)
H18C H 0.94117(34) 0.78036(30) 0.65034(29)
H19C H 0.91372(34) 0.84968(30) 0.66671(29)
C8C C 0.86324(27) 0.80642(26) 0.59424(24)
H20C H 0.87731(27) 0.77107(26) 0.56644(24)
H21C H 0.86917(27) 0.84711(26) 0.57123(24)
C9C C 0.79364(23) 0.79536(22) 0.61565(22)
H22C H 0.77081(23) 0.76807(22) 0.58475(22)
H23C H 0.77164(23) 0.83693(22) 0.61856(22)
O1H O 0.67875(13) 0.79716(13) 0.76442(13)
C6H C 0.70742(25) 0.86051(23) 0.77752(22)
H16H H 0.74345(25) 0.85628(23) 0.80760(22)
H17H H 0.72316(25) 0.87929(23) 0.73727(22)
C7H C 0.65551(34) 0.90166(30) 0.80552(29)
H18H H 0.65034(34) 0.94117(30) 0.78036(29)
H19H H 0.66671(34) 0.91372(30) 0.84968(29)
C8H C 0.59424(27) 0.86324(26) 0.80642(24)
H20H H 0.56644(27) 0.87731(26) 0.77107(24)
H21H H 0.57123(27) 0.86917(26) 0.84711(24)
C9H C 0.61565(23) 0.79364(22) 0.79536(22)
H22H H 0.58475(23) 0.77081(22) 0.76807(22)
H23H H 0.61856(23) 0.77164(22) 0.83693(22)
#END

data_CSD_CIF_VOTCEM
_audit_creation_date 1992-11-02
_audit_creation_method CSD-ConQuest-V1
_database_code_CSD VOTCEM
_database_code_depnum_ccdc_archive 'CCDC 1286563'
_chemical_formula_sum 'C33 H39 Fe1 K1 O9 S3'
_chemical_formula_moiety
;
C21 H15 Fe1 O3 S3 1-,C12 H24 K1 O6 1+
;
_journal_coden_Cambridge 54
_journal_volume 100
_journal_year 1991
_journal_page_first 445
_journal_name_full 'Bull.Soc.Chim.Belg. '
loop_
_publ_author_name
"Z.Nagy-Magos"
"L.Marko"
"A.Szakacs-Schmidt"
"G.Gervasio"
"E.Belluso"
"S.F.Kettle"
_chemical_name_systematic
;
fac-(Potassium 18-crown-6) tricarbonyl-tris(phenylthiolato-S)-iron
;
_cell_volume   7539.913
_exptl_crystal_colour 'dark orange'
_exptl_special_details
;
Light-sensitive crystals
Dx and fw given as 1.41 and 795.09 respectively; we find 1.36 and 770.80
;
_diffrn_ambient_temperature ?
_diffrn_special_details
;
The study was carried out at room temperature,in the range 283-303K

;
#These two values have been output from a single CSD field.
_refine_ls_R_factor_gt 0.05
_refine_ls_wR_factor_gt 0.05
_symmetry_cell_setting cubic
_symmetry_space_group_name_H-M 'P a 3'
_symmetry_Int_Tables_number 205
loop_
_symmetry_equiv_pos_site_id
_symmetry_equiv_pos_as_xyz
1 x,y,z
2 z,x,y
3 y,z,x
4 -x,1/2+y,1/2-z
5 -z,1/2+x,1/2-y
6 -y,1/2+z,1/2-x
7 1/2-x,-y,1/2+z
8 1/2-z,-x,1/2+y
9 1/2-y,-z,1/2+x
10 1/2+x,1/2-y,-z
11 1/2+z,1/2-x,-y
12 1/2+y,1/2-z,-x
13 -x,-y,-z
14 -z,-x,-y
15 -y,-z,-x
16 x,-1/2-y,-1/2+z
17 z,-1/2-x,-1/2+y
18 y,-1/2-z,-1/2+x
19 -1/2+x,y,-1/2-z
20 -1/2+z,x,-1/2-y
21 -1/2+y,z,-1/2-x
22 -1/2-x,-1/2+y,z
23 -1/2-z,-1/2+x,y
24 -1/2-y,-1/2+z,x
_cell_length_a 19.609(4)
_cell_length_b 19.609(4)
_cell_length_c 19.609(4)
_cell_angle_alpha 90
_cell_angle_beta 90
_cell_angle_gamma 90
_cell_formula_units_Z 8
loop_
_atom_type_symbol
_atom_type_radius_bond
C 0.68
H 0.23
Fe 1.34
K 1.88
O 0.68
S 1.02
loop_
_atom_site_label
_atom_site_type_symbol
_atom_site_fract_x
_atom_site_fract_y
_atom_site_fract_z
Fe1 Fe 0.08802(5) 0.08802(5) 0.08802(5)
S1 S 0.15629(9) 0.05532(9) 0.18091(9)
C1 C 0.12025(34) 0.01362(34) 0.04481(35)
O1 O 0.13782(26) -0.03395(24) 0.01700(27)
C2 C 0.10842(40) -0.06244(41) 0.23832(40)
H1 H 0.14214(40) -0.08856(41) 0.20347(40)
C3 C 0.06780(55) -0.09907(54) 0.28388(53)
H2 H 0.07039(55) -0.15409(54) 0.28376(53)
C4 C 0.02587(57) -0.06714(66) 0.32804(55)
H3 H -0.00520(57) -0.09686(66) 0.36246(55)
C5 C 0.02257(47) 0.00193(63) 0.32904(46)
H4 H -0.01066(47) 0.02732(63) 0.36489(46)
C6 C 0.06216(38) 0.03994(41) 0.28383(39)
H5 H 0.05935(38) 0.09494(41) 0.28468(39)
C7 C 0.10481(36) 0.00784(38) 0.23812(36)
K1 K 0.21753(7) 0.21753(7) 0.21753(7)
O2 O 0.16144(25) 0.35362(23) 0.20495(26)
O3 O 0.13816(24) 0.28427(28) 0.32651(25)
C8 C 0.19351(40) 0.40362(39) 0.16702(45)
H6 H 0.24752(40) 0.41402(39) 0.16983(45)
H7 H 0.17365(40) 0.42240(39) 0.11921(45)
C9 C 0.12668(42) 0.38344(37) 0.26046(42)
H8 H 0.16273(42) 0.40665(37) 0.29503(42)
H9 H 0.09133(42) 0.42163(37) 0.24242(42)
C10 C 0.08919(39) 0.32738(44) 0.29628(39)
H10 H 0.05906(39) 0.29907(44) 0.25989(39)
H11 H 0.05619(39) 0.34837(44) 0.33505(39)
C11 C 0.10532(40) 0.23348(42) 0.36499(41)
H12 H 0.09896(40) 0.18165(42) 0.34749(41)
H13 H 0.10129(40) 0.23495(42) 0.41990(41)
S1A S 0.18091(9) 0.15629(9) 0.05532(9)
S1B S 0.05532(9) 0.18091(9) 0.15629(9)
C1A C 0.04481(34) 0.12025(34) 0.01362(35)
C1B C 0.01362(34) 0.04481(34) 0.12025(35)
C7A C 0.23812(36) 0.10481(38) 0.00784(36)
C7B C 0.00784(36) 0.23812(38) 0.10481(36)
O1A O 0.01700(26) 0.13782(24) -0.03395(27)
O1B O -0.03395(26) 0.01700(24) 0.13782(27)
C2A C 0.23832(40) 0.10842(41) -0.06244(40)
C6A C 0.28383(38) 0.06216(41) 0.03994(39)
C2B C -0.06244(40) 0.23832(41) 0.10842(40)
C6B C 0.03994(38) 0.28383(41) 0.06216(39)
H1A H 0.20347(40) 0.14214(41) -0.08856(40)
C3A C 0.28388(55) 0.06780(54) -0.09907(53)
C5A C 0.32904(47) 0.02257(63) 0.00193(46)
H5A H 0.28468(38) 0.05935(41) 0.09494(39)
H1B H -0.08856(40) 0.20347(41) 0.14214(40)
C3B C -0.09907(55) 0.28388(54) 0.06780(53)
C5B C 0.00193(47) 0.32904(63) 0.02257(46)
H5B H 0.09494(38) 0.28468(41) 0.05935(39)
H2A H 0.28376(55) 0.07039(54) -0.15409(53)
C4A C 0.32804(57) 0.02587(66) -0.06714(55)
H4A H 0.36489(47) -0.01066(63) 0.02732(46)
H2B H -0.15409(55) 0.28376(54) 0.07039(53)
C4B C -0.06714(57) 0.32804(66) 0.02587(55)
H4B H 0.02732(47) 0.36489(63) -0.01066(46)
H3A H 0.36246(57) -0.00520(66) -0.09686(55)
H3B H -0.09686(57) 0.36246(66) -0.00520(55)
O2A O 0.20495(25) 0.16144(23) 0.35362(26)
O2B O 0.35362(25) 0.20495(23) 0.16144(26)
O3A O 0.32651(24) 0.13816(28) 0.28427(25)
O3B O 0.28427(24) 0.32651(28) 0.13816(25)
C11B C 0.23348(40) 0.36499(42) 0.10532(41)
C8A C 0.16702(40) 0.19351(39) 0.40362(45)
C9A C 0.26046(42) 0.12668(37) 0.38344(42)
C8B C 0.40362(40) 0.16702(39) 0.19351(45)
C9B C 0.38344(42) 0.26046(37) 0.12668(42)
C10A C 0.29628(39) 0.08919(44) 0.32738(39)
C11A C 0.36499(40) 0.10532(42) 0.23348(41)
C10B C 0.32738(39) 0.29628(44) 0.08919(39)
H12B H 0.18165(40) 0.34749(42) 0.09896(41)
H13B H 0.23495(40) 0.41990(42) 0.10129(41)
H6A H 0.16983(40) 0.24752(39) 0.41402(45)
H7A H 0.11921(40) 0.17365(39) 0.42240(45)
H8A H 0.29503(42) 0.16273(37) 0.40665(42)
H9A H 0.24242(42) 0.09133(37) 0.42163(42)
H6B H 0.41402(40) 0.16983(39) 0.24752(45)
H7B H 0.4224(4) 0.11921(39) 0.17365(45)
H8B H 0.40665(42) 0.29503(37) 0.16273(42)
H9B H 0.42163(42) 0.24242(37) 0.09133(42)
H10A H 0.25989(39) 0.05906(44) 0.29907(39)
H11A H 0.33505(39) 0.05619(44) 0.34837(39)
H12A H 0.34749(40) 0.09896(42) 0.18165(41)
H13A H 0.4199(4) 0.10129(42) 0.23495(41)
H10B H 0.29907(39) 0.25989(44) 0.05906(39)
H11B H 0.34837(39) 0.33505(44) 0.05619(39)
#END

data_CSD_CIF_VOZJAY
_audit_creation_date 2019-11-28
_audit_creation_method CSD-ConQuest-V1
_database_code_CSD VOZJAY
_database_code_depnum_ccdc_archive 'CCDC 1514786'
_chemical_formula_sum 'C1.5 H2 I14 N1 Rb3 W6'
_chemical_formula_moiety
;
I14 W6 3-,0.5(C3 H4 N2),3(Rb1 1+)
;
_journal_coden_Cambridge 1078
_journal_year 2019
_journal_name_full 'CSD Communication(Private Communication) '
loop_
_publ_author_name
"T.Hummel"
_chemical_name_systematic
;
tri-rubidium octakis(\m-iodo)-hexaiodo-hexa-tungsten 1H-imidazole solvate
;
_cell_volume   5673.945
_exptl_crystal_density_diffrn 3.715
_diffrn_ambient_temperature 116
#These two values have been output from a single CSD field.
_refine_ls_R_factor_gt 0.0358
_refine_ls_wR_factor_gt 0.0358
_symmetry_cell_setting cubic
_symmetry_space_group_name_H-M 'P a -3'
_symmetry_Int_Tables_number 205
loop_
_symmetry_equiv_pos_site_id
_symmetry_equiv_pos_as_xyz
1 x,y,z
2 1/2-x,-y,1/2+z
3 1/2+x,1/2-y,-z
4 -x,1/2+y,1/2-z
5 y,z,x
6 1/2-y,-z,1/2+x
7 1/2+y,1/2-z,-x
8 -y,1/2+z,1/2-x
9 z,x,y
10 -z,1/2+x,1/2-y
11 1/2-z,-x,1/2+y
12 1/2+z,1/2-x,-y
13 -x,-y,-z
14 -1/2+x,y,-1/2-z
15 -1/2-x,-1/2+y,z
16 x,-1/2-y,-1/2+z
17 -y,-z,-x
18 -1/2+y,z,-1/2-x
19 -1/2-y,-1/2+z,x
20 y,-1/2-z,-1/2+x
21 -z,-x,-y
22 z,-1/2-x,-1/2+y
23 -1/2+z,x,-1/2-y
24 -1/2-z,-1/2+x,y
_cell_length_a 17.8359(7)
_cell_length_b 17.8359(7)
_cell_length_c 17.8359(7)
_cell_angle_alpha 90
_cell_angle_beta 90
_cell_angle_gamma 90
_cell_formula_units_Z 4
loop_
_atom_type_symbol
_atom_type_radius_bond
C 0.68
H 0.23
I 1.40
N 0.68
Rb 2.20
W 1.62
loop_
_atom_site_label
_atom_site_type_symbol
_atom_site_fract_x
_atom_site_fract_y
_atom_site_fract_z
W1 W 0.02179(3) 0.10194(3) -0.01789(3)
I1 I -0.10287(5) 0.14804(5) 0.06544(5)
I2 I 0.11075(5) 0.11075(5) 0.11075(5)
I3 I 0.05639(7) 0.25479(6) -0.04486(7)
N1 N -0.059(2) -0.1355(16) 0.3533(14)
C1 C -0.0025(16) -0.178(2) 0.3376(18)
H1 H 0.04400 -0.17360 0.36310
C2 C -0.012(2) -0.2229(16) 0.2899(16)
H2 H 0.02090 -0.25950 0.26940
C3 C -0.1081(14) -0.1531(19) 0.312(2)
H3 H -0.15570 -0.12930 0.31150
N2 N -0.092(2) -0.2038(18) 0.2718(15)
H4 H -0.12030 -0.22560 0.23820
Rb1 Rb 0.00000 0.00000 0.50000
Rb2 Rb 0.28853(10) 0.28853(10) 0.28853(10)
W1D W 0.10194(3) -0.01789(3) 0.02179(3)
I1D I 0.14804(5) 0.06544(5) -0.10287(5)
I3D I 0.25479(7) -0.04486(6) 0.05639(7)
W1H W -0.01789(3) 0.02179(3) 0.10194(3)
I1H I 0.06544(5) -0.10287(5) 0.14804(5)
I3H I -0.04486(7) 0.05639(6) 0.25479(7)
W1P W -0.10194(3) 0.01789(3) -0.02179(3)
I1P I -0.14804(5) -0.06544(5) 0.10287(5)
I2L I -0.11075(5) -0.11075(5) -0.11075(5)
I3P I -0.25479(7) 0.04486(6) -0.05639(7)
W1T W 0.01789(3) -0.02179(3) -0.10194(3)
I1T I -0.06544(5) 0.10287(5) -0.14804(5)
I3T I 0.04486(7) -0.05639(6) -0.25479(7)
W1L W -0.02179(3) -0.10194(3) 0.01789(3)
I1L I 0.10287(5) -0.14804(5) -0.06544(5)
I3L I -0.05639(7) -0.25479(6) 0.04486(7)
#END

data_CSD_CIF_VUXMEH
_audit_creation_date 2010-06-16
_audit_creation_method CSD-ConQuest-V1
_database_code_CSD VUXMEH
_database_code_depnum_ccdc_archive 'CCDC 728456'
_chemical_formula_sum 'C72 H72 Eu1 Li2 N12 Sn4'
_chemical_formula_moiety
;
C72 H72 Eu1 Li2 N12 Sn4
;
_journal_coden_Cambridge 1220
_journal_volume 15
_journal_year 2009
_journal_page_first 10018
_journal_name_full 'Chem.-Eur.J. '
loop_
_publ_author_name
"F.Reichart"
"M.Kischel"
"K.Zeckert"
_chemical_name_systematic
;
dodecakis(\m~2~-5-methyl-2-pyridyl)-europium(ii)-di-lithium-tetra-tin(ii)
;
_cell_volume   7586.496
_exptl_crystal_colour 'red'
_exptl_crystal_density_diffrn 1.529
_exptl_crystal_description 'octahedral'
_diffrn_ambient_temperature 130
#These two values have been output from a single CSD field.
_refine_ls_R_factor_gt 0.0404
_refine_ls_wR_factor_gt 0.0404
_symmetry_cell_setting cubic
_symmetry_space_group_name_H-M 'P a 3'
_symmetry_Int_Tables_number 205
loop_
_symmetry_equiv_pos_site_id
_symmetry_equiv_pos_as_xyz
1 x,y,z
2 1/2-x,-y,1/2+z
3 -x,1/2+y,1/2-z
4 1/2+x,1/2-y,-z
5 z,x,y
6 1/2+z,1/2-x,-y
7 1/2-z,-x,1/2+y
8 -z,1/2+x,1/2-y
9 y,z,x
10 -y,1/2+z,1/2-x
11 1/2+y,1/2-z,-x
12 1/2-y,-z,1/2+x
13 -x,-y,-z
14 -1/2+x,y,-1/2-z
15 x,-1/2-y,-1/2+z
16 -1/2-x,-1/2+y,z
17 -z,-x,-y
18 -1/2-z,-1/2+x,y
19 -1/2+z,x,-1/2-y
20 z,-1/2-x,-1/2+y
21 -y,-z,-x
22 y,-1/2-z,-1/2+x
23 -1/2-y,-1/2+z,x
24 -1/2+y,z,-1/2-x
_cell_length_a 19.6493(1)
_cell_length_b 19.6493(1)
_cell_length_c 19.6493(1)
_cell_angle_alpha 90
_cell_angle_beta 90
_cell_angle_gamma 90
_cell_formula_units_Z 4
loop_
_atom_type_symbol
_atom_type_radius_bond
C 0.68
H 0.23
Eu 1.98
Li 1.28
N 0.68
Sn 1.39
loop_
_atom_site_label
_atom_site_type_symbol
_atom_site_fract_x
_atom_site_fract_y
_atom_site_fract_z
C1 C 0.15961(17) 0.07050(17) 0.01989(17)
C2 C 0.22728(19) 0.08809(19) 0.00759(19)
H1 H 0.25050 0.11700 0.03870
C3 C 0.26091(18) 0.0640(2) -0.0492(2)
H2 H 0.30690 0.07670 -0.05710
C4 C 0.2285(2) 0.0219(2) -0.0943(2)
C5 C 0.1614(2) 0.0065(2) -0.0786(2)
H3 H 0.13780 -0.02280 -0.10890
C6 C 0.2636(2) -0.0066(3) -0.1556(2)
H4 H 0.23910 -0.04690 -0.17150
H5 H 0.31040 -0.01920 -0.14360
H6 H 0.26450 0.02780 -0.19170
C7 C 0.2604(2) 0.3249(2) 0.1880(2)
C8 C 0.2861(2) 0.3832(2) 0.1584(3)
H7 H 0.31820 0.41010 0.18260
C9 C 0.2657(3) 0.4029(2) 0.0941(3)
H8 H 0.28370 0.44330 0.07450
C10 C 0.2193(2) 0.3641(2) 0.0582(3)
C11 C 0.1956(2) 0.3064(2) 0.0912(2)
H9 H 0.16320 0.27900 0.06790
C12 C 0.1969(4) 0.3796(3) -0.0128(3)
H10 H 0.23460 0.37120 -0.04430
H11 H 0.18300 0.42740 -0.01580
H12 H 0.15840 0.35030 -0.02480
N1 N 0.12733(16) 0.02925(18) -0.02438(17)
N2 N 0.21480(17) 0.28642(17) 0.15319(19)
Sn1 Sn 0.114221(11) 0.114221(11) 0.114221(11)
Sn2 Sn 0.293640(14) 0.293640(14) 0.293640(14)
Eu1 Eu 0.00000 0.00000 0.00000
Li1 Li 0.1963(3) 0.1963(3) 0.1963(3)
C1D C 0.01989(17) 0.15961(17) 0.07050(17)
C1H C 0.07050(17) 0.01989(17) 0.15961(17)
C1L C -0.15961(17) -0.07050(17) -0.01989(17)
C1P C -0.01989(17) -0.15961(17) -0.07050(17)
C1T C -0.07050(17) -0.01989(17) -0.15961(17)
C2D C 0.00759(19) 0.22728(19) 0.08809(19)
C2H C 0.08809(19) 0.00759(19) 0.22728(19)
C2L C -0.22728(19) -0.08809(19) -0.00759(19)
C2P C -0.00759(19) -0.22728(19) -0.08809(19)
C2T C -0.08809(19) -0.00759(19) -0.22728(19)
H1D H 0.03870 0.25050 0.11700
H1H H 0.11700 0.03870 0.25050
H1L H -0.25050 -0.11700 -0.03870
H1P H -0.03870 -0.25050 -0.11700
H1T H -0.11700 -0.03870 -0.25050
C3D C -0.04920(18) 0.26091(20) 0.0640(2)
C3H C 0.06400(18) -0.0492(2) 0.26091(20)
C3L C -0.26091(18) -0.0640(2) 0.0492(2)
C3P C 0.04920(18) -0.26091(20) -0.0640(2)
C3T C -0.06400(18) 0.0492(2) -0.26091(20)
H2D H -0.05710 0.30690 0.07670
H2H H 0.07670 -0.05710 0.30690
H2L H -0.30690 -0.07670 0.05710
H2P H 0.05710 -0.30690 -0.07670
H2T H -0.07670 0.05710 -0.30690
C4D C -0.0943(2) 0.2285(2) 0.0219(2)
C4H C 0.0219(2) -0.0943(2) 0.2285(2)
C4L C -0.2285(2) -0.0219(2) 0.0943(2)
C4P C 0.0943(2) -0.2285(2) -0.0219(2)
C4T C -0.0219(2) 0.0943(2) -0.2285(2)
C5D C -0.0786(2) 0.1614(2) 0.0065(2)
C5H C 0.0065(2) -0.0786(2) 0.1614(2)
C5L C -0.1614(2) -0.0065(2) 0.0786(2)
C5P C 0.0786(2) -0.1614(2) -0.0065(2)
C5T C -0.0065(2) 0.0786(2) -0.1614(2)
H3D H -0.10890 0.13780 -0.02280
H3H H -0.02280 -0.10890 0.13780
H3L H -0.13780 0.02280 0.10890
H3P H 0.10890 -0.13780 0.02280
H3T H 0.02280 0.10890 -0.13780
C6D C -0.1556(2) 0.2636(3) -0.0066(2)
C6H C -0.0066(2) -0.1556(3) 0.2636(2)
C6L C -0.2636(2) 0.0066(3) 0.1556(2)
C6P C 0.1556(2) -0.2636(3) 0.0066(2)
C6T C 0.0066(2) 0.1556(3) -0.2636(2)
H4D H -0.17150 0.23910 -0.04690
H4H H -0.04690 -0.17150 0.23910
H4L H -0.23910 0.04690 0.17150
H4P H 0.17150 -0.23910 0.04690
H4T H 0.04690 0.17150 -0.23910
H5D H -0.14360 0.31040 -0.01920
H5H H -0.01920 -0.14360 0.31040
H5L H -0.31040 0.01920 0.14360
H5P H 0.14360 -0.31040 0.01920
H5T H 0.01920 0.14360 -0.31040
H6D H -0.19170 0.26450 0.02780
H6H H 0.02780 -0.19170 0.26450
H6L H -0.26450 -0.02780 0.19170
H6P H 0.19170 -0.26450 -0.02780
H6T H -0.02780 0.19170 -0.26450
C7D C 0.1880(2) 0.2604(2) 0.3249(2)
C7H C 0.3249(2) 0.1880(2) 0.2604(2)
C7L C -0.2604(2) -0.3249(2) -0.1880(2)
C7P C -0.1880(2) -0.2604(2) -0.3249(2)
C7T C -0.3249(2) -0.1880(2) -0.2604(2)
C8D C 0.1584(2) 0.2861(2) 0.3832(3)
C8H C 0.3832(2) 0.1584(2) 0.2861(3)
C8L C -0.2861(2) -0.3832(2) -0.1584(3)
C8P C -0.1584(2) -0.2861(2) -0.3832(3)
C8T C -0.3832(2) -0.1584(2) -0.2861(3)
H7D H 0.18260 0.31820 0.41010
H7H H 0.41010 0.18260 0.31820
H7L H -0.31820 -0.41010 -0.18260
H7P H -0.18260 -0.31820 -0.41010
H7T H -0.41010 -0.18260 -0.31820
C9D C 0.0941(3) 0.2657(2) 0.4029(3)
C9H C 0.4029(3) 0.0941(2) 0.2657(3)
C9L C -0.2657(3) -0.4029(2) -0.0941(3)
C9P C -0.0941(3) -0.2657(2) -0.4029(3)
C9T C -0.4029(3) -0.0941(2) -0.2657(3)
H8D H 0.07450 0.28370 0.44330
H8H H 0.44330 0.07450 0.28370
H8L H -0.28370 -0.44330 -0.07450
H8P H -0.07450 -0.28370 -0.44330
H8T H -0.44330 -0.07450 -0.28370
C10D C 0.0582(2) 0.2193(2) 0.3641(3)
C10H C 0.3641(2) 0.0582(2) 0.2193(3)
C10L C -0.2193(2) -0.3641(2) -0.0582(3)
C10P C -0.0582(2) -0.2193(2) -0.3641(3)
C10T C -0.3641(2) -0.0582(2) -0.2193(3)
C11D C 0.0912(2) 0.1956(2) 0.3064(2)
C11H C 0.3064(2) 0.0912(2) 0.1956(2)
C11L C -0.1956(2) -0.3064(2) -0.0912(2)
C11P C -0.0912(2) -0.1956(2) -0.3064(2)
C11T C -0.3064(2) -0.0912(2) -0.1956(2)
H9D H 0.06790 0.16320 0.27900
H9H H 0.27900 0.06790 0.16320
H9L H -0.16320 -0.27900 -0.06790
H9P H -0.06790 -0.16320 -0.27900
H9T H -0.27900 -0.06790 -0.16320
C12D C -0.0128(4) 0.1969(3) 0.3796(3)
C12H C 0.3796(4) -0.0128(3) 0.1969(3)
C12L C -0.1969(4) -0.3796(3) 0.0128(3)
C12P C 0.0128(4) -0.1969(3) -0.3796(3)
C12T C -0.3796(4) 0.0128(3) -0.1969(3)
H10D H -0.04430 0.23460 0.37120
H10H H 0.37120 -0.04430 0.23460
H10L H -0.23460 -0.37120 0.04430
H10P H 0.04430 -0.23460 -0.37120
H10T H -0.37120 0.04430 -0.23460
H11D H -0.01580 0.18300 0.42740
H11H H 0.42740 -0.01580 0.18300
H11L H -0.18300 -0.42740 0.01580
H11P H 0.01580 -0.18300 -0.42740
H11T H -0.42740 0.01580 -0.18300
H12D H -0.02480 0.15840 0.35030
H12H H 0.35030 -0.02480 0.15840
H12L H -0.15840 -0.35030 0.02480
H12P H 0.02480 -0.15840 -0.35030
H12T H -0.35030 0.02480 -0.15840
N1D N -0.02438(16) 0.12733(18) 0.02925(17)
N1H N 0.02925(16) -0.02438(18) 0.12733(17)
N1L N -0.12733(16) -0.02925(18) 0.02438(17)
N1P N 0.02438(16) -0.12733(18) -0.02925(17)
N1T N -0.02925(16) 0.02438(18) -0.12733(17)
N2D N 0.15319(17) 0.21480(17) 0.28642(19)
N2H N 0.28642(17) 0.15319(17) 0.21480(19)
N2L N -0.21480(17) -0.28642(17) -0.15319(19)
N2P N -0.15319(17) -0.21480(17) -0.28642(19)
N2T N -0.28642(17) -0.15319(17) -0.21480(19)
Sn1L Sn -0.114221(11) -0.114221(11) -0.114221(11)
Sn2L Sn -0.293640(14) -0.293640(14) -0.293640(14)
Li1L Li -0.1963(3) -0.1963(3) -0.1963(3)
#END

data_CSD_CIF_WAVSIV
_audit_creation_date 1994-04-11
_audit_creation_method CSD-ConQuest-V1
_database_code_CSD WAVSIV
_chemical_formula_sum 'C48 H102 Na2 O6 S6 U1'
_chemical_formula_moiety
;
C48 H102 Na2 O6 S6 U1
;
_journal_coden_Cambridge 186
_journal_year 1993
_journal_page_first 2251
_journal_name_full 'J.Chem.Soc.,Dalton Trans. '
loop_
_publ_author_name
"P.C.Leverd"
"M.Lance"
"M.Nierlich"
"J.Vigner"
"M.Ephritikhine"
_chemical_name_systematic
;
hexakis((\m~2~-t-Butylthiolato-S,S)-tetrahydrofuran)-di-sodium-uranium(iv)
;
_cell_volume   6687.175
_exptl_crystal_colour 'red'
_exptl_crystal_density_diffrn 1.243
_exptl_special_details
;
Fw reported as 962.30; we calculate 1251.71

;
_diffrn_ambient_temperature ?
_diffrn_special_details
;
The study was carried out at room temperature,in the range 283-303K

;
#These two values have been output from a single CSD field.
_refine_ls_R_factor_gt 0.042
_refine_ls_wR_factor_gt 0.042
_symmetry_cell_setting cubic
_symmetry_space_group_name_H-M 'P a 3'
_symmetry_Int_Tables_number 205
loop_
_symmetry_equiv_pos_site_id
_symmetry_equiv_pos_as_xyz
1 x,y,z
2 z,x,y
3 y,z,x
4 1/2+x,y,1/2-z
5 1/2+z,x,1/2-y
6 1/2+y,z,1/2-x
7 1/2-x,1/2+y,z
8 1/2-z,1/2+x,y
9 1/2-y,1/2+z,x
10 -x,1/2+y,1/2-z
11 -z,1/2+x,1/2-y
12 -y,1/2+z,1/2-x
13 -x,-y,-z
14 -z,-x,-y
15 -y,-z,-x
16 -1/2-x,-y,-1/2+z
17 -1/2-z,-x,-1/2+y
18 -1/2-y,-z,-1/2+x
19 -1/2+x,-1/2-y,-z
20 -1/2+z,-1/2-x,-y
21 -1/2+y,-1/2-z,-x
22 x,-1/2-y,-1/2+z
23 z,-1/2-x,-1/2+y
24 y,-1/2-z,-1/2+x
_cell_length_a 18.840(8)
_cell_length_b 18.840(8)
_cell_length_c 18.840(8)
_cell_angle_alpha 90
_cell_angle_beta 90
_cell_angle_gamma 90
_cell_formula_units_Z 4
loop_
_atom_type_symbol
_atom_type_radius_bond
C 0.68
Na 1.56
O 0.68
S 1.02
U 1.58
loop_
_atom_site_label
_atom_site_type_symbol
_atom_site_fract_x
_atom_site_fract_y
_atom_site_fract_z
U1 U 0.00000 0.00000 0.00000
S1 S -0.1049(4) -0.0951(4) 0.0357(4)
Na1 Na -0.1192(6) -0.11900 -0.11900
O1 O -0.250(1) -0.116(1) -0.139(1)
C1 C -0.190(2) -0.072(2) 0.083(2)
C2 C -0.226(2) -0.007(3) 0.039(2)
C3 C -0.173(2) -0.042(2) 0.157(2)
C4 C -0.240(2) -0.135(2) 0.082(2)
C5 C -0.283(2) -0.047(2) -0.158(2)
C6 C -0.356(2) -0.067(3) -0.184(3)
C7 C -0.371(3) -0.149(3) -0.150(3)
C8 C -0.297(2) -0.175(3) -0.137(2)
S1L S 0.1049(4) 0.0951(4) -0.0357(4)
S1A S 0.0357(4) -0.1049(4) -0.0951(4)
S1M S -0.0357(4) 0.1049(4) 0.0951(4)
S1B S -0.0951(4) 0.0357(4) -0.1049(4)
S1N S 0.0951(4) -0.0357(4) 0.1049(4)
O1A O -0.139(1) -0.250(1) -0.116(1)
O1B O -0.116(1) -0.139(1) -0.250(1)
Na1L Na 0.1192(6) 0.11900 0.11900
C1L C 0.190(2) 0.072(2) -0.083(2)
C1A C 0.083(2) -0.190(2) -0.072(2)
C1M C -0.083(2) 0.190(2) 0.072(2)
C1B C -0.072(2) 0.083(2) -0.190(2)
C1N C 0.072(2) -0.083(2) 0.190(2)
C5A C -0.158(2) -0.283(2) -0.047(2)
C8A C -0.137(2) -0.297(3) -0.175(2)
C5B C -0.047(2) -0.158(2) -0.283(2)
C8B C -0.175(2) -0.137(3) -0.297(2)
O1L O 0.250(1) 0.116(1) 0.139(1)
O1M O 0.139(1) 0.250(1) 0.116(1)
O1N O 0.116(1) 0.139(1) 0.250(1)
C2L C 0.226(2) 0.007(3) -0.039(2)
C3L C 0.173(2) 0.042(2) -0.157(2)
C4L C 0.240(2) 0.135(2) -0.082(2)
C2A C 0.039(2) -0.226(3) -0.007(2)
C3A C 0.157(2) -0.173(2) -0.042(2)
C4A C 0.082(2) -0.240(2) -0.135(2)
C2M C -0.039(2) 0.226(3) 0.007(2)
C3M C -0.157(2) 0.173(2) 0.042(2)
C4M C -0.082(2) 0.240(2) 0.135(2)
C2B C -0.007(2) 0.039(3) -0.226(2)
C3B C -0.042(2) 0.157(2) -0.173(2)
C4B C -0.135(2) 0.082(2) -0.240(2)
C2N C 0.007(2) -0.039(3) 0.226(2)
C3N C 0.042(2) -0.157(2) 0.173(2)
C4N C 0.135(2) -0.082(2) 0.240(2)
C6A C -0.184(2) -0.356(3) -0.067(3)
C7A C -0.150(3) -0.371(3) -0.149(3)
C6B C -0.067(2) -0.184(3) -0.356(3)
C7B C -0.149(3) -0.150(3) -0.371(3)
C5L C 0.283(2) 0.047(2) 0.158(2)
C8L C 0.297(2) 0.175(3) 0.137(2)
C5M C 0.158(2) 0.283(2) 0.047(2)
C8M C 0.137(2) 0.297(3) 0.175(2)
C5N C 0.047(2) 0.158(2) 0.283(2)
C8N C 0.175(2) 0.137(3) 0.297(2)
C6L C 0.356(2) 0.067(3) 0.184(3)
C7L C 0.371(3) 0.149(3) 0.150(3)
C6M C 0.184(2) 0.356(3) 0.067(3)
C7M C 0.150(3) 0.371(3) 0.149(3)
C6N C 0.067(2) 0.184(3) 0.356(3)
C7N C 0.149(3) 0.150(3) 0.371(3)
#END

data_CSD_CIF_WEWLIT
_audit_creation_date 1994-12-19
_audit_creation_method CSD-ConQuest-V1
_database_code_CSD WEWLIT
_chemical_formula_sum 'C72 H102 Hg1 N6 Tc2'
_chemical_formula_moiety
;
C72 H102 Hg1 N6 Tc2
;
_journal_coden_Cambridge 4
_journal_volume 116
_journal_year 1994
_journal_page_first 3813
_journal_name_full 'J.Am.Chem.Soc. '
loop_
_publ_author_name
"A.K.Burrell"
"D.L.Clark"
"P.L.Gordon"
"A.P.Sattelberger"
"J.C.Bryan"
_chemical_name_systematic
;
hexakis(2,6-Di-isopropylphenylamido-N,N)-(\m~2~-mercury)-di-technetium(v)
;
_cell_volume   7483.531
_exptl_crystal_colour 'red'
_exptl_crystal_density_diffrn 1.28
_diffrn_ambient_temperature ?
_diffrn_special_details
;
The study was carried out at room temperature,in the range 283-303K

;
#These two values have been output from a single CSD field.
_refine_ls_R_factor_gt 0.047
_refine_ls_wR_factor_gt 0.047
_symmetry_cell_setting cubic
_symmetry_space_group_name_H-M 'P a 3'
_symmetry_Int_Tables_number 205
loop_
_symmetry_equiv_pos_site_id
_symmetry_equiv_pos_as_xyz
1 x,y,z
2 z,x,y
3 y,z,x
4 1/2+x,y,1/2-z
5 1/2+z,x,1/2-y
6 1/2+y,z,1/2-x
7 1/2-x,1/2+y,z
8 1/2-z,1/2+x,y
9 1/2-y,1/2+z,x
10 -x,1/2+y,1/2-z
11 -z,1/2+x,1/2-y
12 -y,1/2+z,1/2-x
13 -x,-y,-z
14 -z,-x,-y
15 -y,-z,-x
16 -1/2-x,-y,-1/2+z
17 -1/2-z,-x,-1/2+y
18 -1/2-y,-z,-1/2+x
19 -1/2+x,-1/2-y,-z
20 -1/2+z,-1/2-x,-y
21 -1/2+y,-1/2-z,-x
22 x,-1/2-y,-1/2+z
23 z,-1/2-x,-1/2+y
24 y,-1/2-z,-1/2+x
_cell_length_a 19.560(3)
_cell_length_b 19.560(3)
_cell_length_c 19.560(3)
_cell_angle_alpha 90
_cell_angle_beta 90
_cell_angle_gamma 90
_cell_formula_units_Z 4
loop_
_atom_type_symbol
_atom_type_radius_bond
C 0.68
Hg 1.65
N 0.68
Tc 1.35
loop_
_atom_site_label
_atom_site_type_symbol
_atom_site_fract_x
_atom_site_fract_y
_atom_site_fract_z
Hg1 Hg 0.00000 0.00000 0.00000
Tc1 Tc 0.07720 0.07720 0.07720
N1 N 0.1116(6) 0.1267(6) 0.0133(5)
C1 C 0.1462(8) 0.1664(8) -0.0362(8)
C2 C 0.2175(9) 0.1659(8) -0.0357(8)
C3 C 0.2538(9) 0.2066(10) -0.0821(11)
C4 C 0.2164(11) 0.2439(11) -0.1303(11)
C5 C 0.1479(12) 0.2435(9) -0.1308(8)
C6 C 0.1098(10) 0.2059(8) -0.0836(9)
C7 C 0.2571(9) 0.1252(10) 0.0176(8)
C8 C 0.3225(10) 0.0980(14) -0.0023(13)
C9 C 0.2653(10) 0.1641(10) 0.0828(9)
C10 C 0.0336(10) 0.2027(9) -0.0854(9)
C11 C 0.0017(10) 0.272(1) -0.1039(10)
C12 C 0.0068(9) 0.1499(9) -0.1357(9)
Tc1L Tc -0.07720 -0.07720 -0.07720
N1A N 0.0133(6) 0.1116(6) 0.1267(5)
N1B N 0.1267(6) 0.0133(6) 0.1116(5)
N1L N -0.1116(6) -0.1267(6) -0.0133(5)
N1M N -0.0133(6) -0.1116(6) -0.1267(5)
N1N N -0.1267(6) -0.0133(6) -0.1116(5)
C1A C -0.0362(8) 0.1462(8) 0.1664(8)
C1B C 0.1664(8) -0.0362(8) 0.1462(8)
C1L C -0.1462(8) -0.1664(8) 0.0362(8)
C1M C 0.0362(8) -0.1462(8) -0.1664(8)
C1N C -0.1664(8) 0.0362(8) -0.1462(8)
C2A C -0.0357(9) 0.2175(8) 0.1659(8)
C6A C -0.0836(10) 0.1098(8) 0.2059(9)
C2B C 0.1659(9) -0.0357(8) 0.2175(8)
C6B C 0.2059(10) -0.0836(8) 0.1098(9)
C2L C -0.2175(9) -0.1659(8) 0.0357(8)
C6L C -0.1098(10) -0.2059(8) 0.0836(9)
C2M C 0.0357(9) -0.2175(8) -0.1659(8)
C6M C 0.0836(10) -0.1098(8) -0.2059(9)
C2N C -0.1659(9) 0.0357(8) -0.2175(8)
C6N C -0.2059(10) 0.0836(8) -0.1098(9)
C3A C -0.0821(9) 0.2538(10) 0.2066(11)
C7A C 0.0176(9) 0.2571(10) 0.1252(8)
C5A C -0.1308(12) 0.1479(9) 0.2435(8)
C10A C -0.0854(10) 0.0336(9) 0.2027(9)
C3B C 0.2066(9) -0.0821(10) 0.2538(11)
C7B C 0.1252(9) 0.0176(10) 0.2571(8)
C5B C 0.2435(12) -0.1308(9) 0.1479(8)
C10B C 0.2027(10) -0.0854(9) 0.0336(9)
C3L C -0.2538(9) -0.2066(10) 0.0821(11)
C7L C -0.2571(9) -0.1252(10) -0.0176(8)
C5L C -0.1479(12) -0.2435(9) 0.1308(8)
C10L C -0.0336(10) -0.2027(9) 0.0854(9)
C3M C 0.0821(9) -0.2538(10) -0.2066(11)
C7M C -0.0176(9) -0.2571(10) -0.1252(8)
C5M C 0.1308(12) -0.1479(9) -0.2435(8)
C10M C 0.0854(10) -0.0336(9) -0.2027(9)
C3N C -0.2066(9) 0.0821(10) -0.2538(11)
C7N C -0.1252(9) -0.0176(10) -0.2571(8)
C5N C -0.2435(12) 0.1308(9) -0.1479(8)
C10N C -0.2027(10) 0.0854(9) -0.0336(9)
C4A C -0.1303(11) 0.2164(11) 0.2439(11)
C8A C -0.0023(10) 0.3225(14) 0.0980(13)
C9A C 0.0828(10) 0.2653(10) 0.1641(9)
C11A C -0.1039(10) 0.0017(10) 0.272(1)
C12A C -0.1357(9) 0.0068(9) 0.1499(9)
C4B C 0.2439(11) -0.1303(11) 0.2164(11)
C8B C 0.098(1) -0.0023(14) 0.3225(13)
C9B C 0.1641(10) 0.0828(10) 0.2653(9)
C11B C 0.272(1) -0.1039(10) 0.0017(10)
C12B C 0.1499(9) -0.1357(9) 0.0068(9)
C4L C -0.2164(11) -0.2439(11) 0.1303(11)
C8L C -0.3225(10) -0.0980(14) 0.0023(13)
C9L C -0.2653(10) -0.1641(10) -0.0828(9)
C11L C -0.0017(10) -0.272(1) 0.1039(10)
C12L C -0.0068(9) -0.1499(9) 0.1357(9)
C4M C 0.1303(11) -0.2164(11) -0.2439(11)
C8M C 0.0023(10) -0.3225(14) -0.0980(13)
C9M C -0.0828(10) -0.2653(10) -0.1641(9)
C11M C 0.1039(10) -0.0017(10) -0.272(1)
C12M C 0.1357(9) -0.0068(9) -0.1499(9)
C4N C -0.2439(11) 0.1303(11) -0.2164(11)
C8N C -0.098(1) 0.0023(14) -0.3225(13)
C9N C -0.1641(10) -0.0828(10) -0.2653(9)
C11N C -0.272(1) 0.1039(10) -0.0017(10)
C12N C -0.1499(9) 0.1357(9) -0.0068(9)
#END

data_CSD_CIF_WINHOT
_audit_creation_date 2018-10-25
_audit_creation_method CSD-ConQuest-V1
_database_code_CSD WINHOT
_database_code_depnum_ccdc_archive 'CCDC 1857722'
_chemical_formula_sum 'C22 H31.5 F6 N6.5 O13 P1 Ru3'
_chemical_formula_moiety
;
C21 H30 N6 O13 Ru3 1+,F6 P1 1-,0.5(C2 H3 N1)
;
_journal_coeditor_code "fn3271"
_journal_coden_Cambridge 1777
_journal_volume 74
_journal_year 2018
_journal_page_first 1487
_journal_name_full 'Acta Crystallogr.,Sect.C:Cryst.Struct.Chem. '
loop_
_publ_author_name
"B.Derstine"
"C.Chamberlain"
"M.Glover"
"L.Porter"
"A.Eckermann"
_chemical_name_systematic
;
hexakis(\m-acetato)-(\m-oxo)-tris(1H-imidazole)-tri-ruthenium 
hexafluorophosphate acetonitrile solvate
;
_cell_volume   7183.024
_exptl_crystal_colour 'black'
_exptl_crystal_density_diffrn 1.929
_exptl_crystal_description 'plate'
_diffrn_ambient_temperature 173
#These two values have been output from a single CSD field.
_refine_ls_R_factor_gt 0.0428
_refine_ls_wR_factor_gt 0.0428
_symmetry_cell_setting cubic
_symmetry_space_group_name_H-M 'P a -3'
_symmetry_Int_Tables_number 205
loop_
_symmetry_equiv_pos_site_id
_symmetry_equiv_pos_as_xyz
1 x,y,z
2 1/2-x,-y,1/2+z
3 -x,1/2+y,1/2-z
4 1/2+x,1/2-y,-z
5 z,x,y
6 1/2+z,1/2-x,-y
7 1/2-z,-x,1/2+y
8 -z,1/2+x,1/2-y
9 y,z,x
10 -y,1/2+z,1/2-x
11 1/2+y,1/2-z,-x
12 1/2-y,-z,1/2+x
13 -x,-y,-z
14 -1/2+x,y,-1/2-z
15 x,-1/2-y,-1/2+z
16 -1/2-x,-1/2+y,z
17 -z,-x,-y
18 -1/2-z,-1/2+x,y
19 -1/2+z,x,-1/2-y
20 z,-1/2-x,-1/2+y
21 -y,-z,-x
22 y,-1/2-z,-1/2+x
23 -1/2-y,-1/2+z,x
24 -1/2+y,z,-1/2-x
_cell_length_a 19.2946(13)
_cell_length_b 19.2946(13)
_cell_length_c 19.2946(13)
_cell_angle_alpha 90
_cell_angle_beta 90
_cell_angle_gamma 90
_cell_formula_units_Z 8
loop_
_atom_type_symbol
_atom_type_radius_bond
C 0.68
H 0.23
F 0.64
N 0.68
O 0.68
P 1.05
Ru 1.46
loop_
_atom_site_label
_atom_site_type_symbol
_atom_site_fract_x
_atom_site_fract_y
_atom_site_fract_z
Ru1 Ru 0.67622(2) 0.46270(2) 0.91302(2)
O1 O 0.60126(15) 0.39874(15) 0.89874(15)
O2 O 0.74925(16) 0.38654(16) 0.91384(15)
O3 O 0.69122(16) 0.30476(16) 0.97439(16)
O4 O 0.53899(15) 0.51922(15) 0.82687(15)
O5 O 0.61256(16) 0.54609(15) 0.91362(16)
N1 N 0.75597(19) 0.53466(18) 0.9283(2)
N2 N 0.8190(2) 0.6284(2) 0.9196(2)
H1 H 0.83550 0.66780 0.90360
C1 C 0.5676(2) 0.5613(2) 0.8690(2)
C2 C 0.7675(2) 0.5911(2) 0.8914(3)
H2 H 0.74280 0.60350 0.85060
C3 C 0.5477(2) 0.6360(2) 0.8643(2)
H3 H 0.57830 0.65960 0.83140
H4 H 0.55210 0.65760 0.91000
H5 H 0.49960 0.63970 0.84840
C4 C 0.7451(2) 0.3294(2) 0.9466(2)
C5 C 0.8015(3) 0.5366(3) 0.9830(3)
H6 H 0.80450 0.50310 1.01890
C6 C 0.8412(3) 0.5942(3) 0.9774(3)
H7 H 0.87750 0.60800 1.00770
C7 C 0.8106(3) 0.2887(3) 0.9543(3)
H8 H 0.80560 0.24390 0.93090
H9 H 0.82010 0.28100 1.00360
H10 H 0.84910 0.31440 0.93350
P1 P 0.7438(3) 0.7438(3) 0.7438(3)
F1 F 0.7899(15) 0.7113(13) 0.7942(13)
F2 F 0.7277(7) 0.7606(8) 0.6657(6)
N3 N 0.9500(14) 0.4500(14) 1.0500(14)
C8 C 0.9132(16) 0.4132(16) 1.0868(16)
C9 C 0.8774(15) 0.3774(15) 1.1226(15)
F3? F 0.7663(6) 0.7289(6) 0.8223(5)
F4? F 0.7551(16) 0.7937(11) 0.7022(11)
F5? F 0.6850(6) 0.6653(10) 0.7526(8)
P2? P 0.7265(6) 0.7265(6) 0.7265(6)
H11? H 0.89600 0.37650 1.17000
Ru1F Ru 0.58698(2) 0.32378(2) 0.96270(2)
O2F O 0.58616(16) 0.25075(16) 0.88654(15)
O3F O 0.52561(16) 0.30878(16) 0.80476(16)
O4F O 0.67313(15) 0.46101(15) 1.01922(15)
O5F O 0.58638(16) 0.38744(15) 1.04609(16)
N1F N 0.57170(19) 0.24403(18) 1.03466(20)
N2F N 0.5804(2) 0.1810(2) 1.1284(2)
H1F H 0.59640 0.16450 1.16780
C1F C 0.6310(2) 0.4324(2) 1.0613(2)
C2F C 0.6086(2) 0.2325(2) 1.0911(3)
H2F H 0.64940 0.25720 1.10350
C3F C 0.6357(2) 0.4523(2) 1.1360(2)
H3F H 0.66860 0.42170 1.15960
H4F H 0.59000 0.44790 1.15760
H5F H 0.65160 0.50040 1.13970
C4F C 0.5534(2) 0.2549(2) 0.8294(2)
C5F C 0.5170(3) 0.1985(3) 1.0366(3)
H6F H 0.48110 0.19550 1.00310
C6F C 0.5226(3) 0.1588(3) 1.0942(3)
H7F H 0.49230 0.12250 1.10800
C7F C 0.5457(3) 0.1894(3) 0.7887(3)
H8F H 0.56910 0.19440 0.74390
H9F H 0.49640 0.17990 0.78100
H10F H 0.56650 0.15090 0.81440
Ru1I Ru 0.53730(2) 0.41302(2) 0.82378(2)
O2I O 0.61346(16) 0.41384(16) 0.75075(15)
O3I O 0.69524(16) 0.47439(16) 0.80878(16)
O4I O 0.48078(15) 0.32687(15) 0.96101(15)
O5I O 0.45391(16) 0.41362(15) 0.88744(16)
N1I N 0.46534(19) 0.42830(18) 0.74403(20)
N2I N 0.3716(2) 0.4196(2) 0.6810(2)
H1I H 0.33220 0.40360 0.66450
C1I C 0.4387(2) 0.3690(2) 0.9324(2)
C2I C 0.4089(2) 0.3914(2) 0.7325(3)
H2I H 0.39650 0.35060 0.75720
C3I C 0.3640(2) 0.3643(2) 0.9523(2)
H3I H 0.34040 0.33140 0.92170
H4I H 0.34240 0.41000 0.94790
H5I H 0.36030 0.34840 1.00040
C4I C 0.6706(2) 0.4466(2) 0.7549(2)
C5I C 0.4634(3) 0.4830(3) 0.6985(3)
H6I H 0.49690 0.51890 0.69550
C6I C 0.4058(3) 0.4774(3) 0.6588(3)
H7I H 0.39200 0.50770 0.62250
C7I C 0.7113(3) 0.4543(3) 0.6894(3)
H8I H 0.75610 0.43090 0.69440
H9I H 0.71900 0.50360 0.67990
H10I H 0.68560 0.43350 0.65090
F1D F 0.7942(15) 0.7899(13) 0.7113(13)
F2D F 0.6657(7) 0.7277(8) 0.7606(6)
F1H F 0.7113(15) 0.7942(13) 0.7899(13)
F2H F 0.7606(7) 0.6657(8) 0.7277(6)
#END

data_CSD_CIF_WUDDEG
_audit_creation_date 2015-05-22
_audit_creation_method CSD-ConQuest-V1
_database_code_CSD WUDDEG
_database_code_depnum_ccdc_archive 'CCDC 1027052'
_chemical_formula_sum 'C8 H24 N2 Se2'
_chemical_formula_moiety
;
2(C4 H12 N1 1+),Se2 2-
;
_journal_coden_Cambridge 29
_journal_volume 640
_journal_year 2014
_journal_page_first 2684
_journal_name_full 'Z.Anorg.Allg.Chem. '
loop_
_publ_author_name
"G.Thiele"
"Lisa Vondung"
"C.Donsbach"
"S.Pulz"
"S.Dehnen"
_chemical_name_systematic
;
bis(tetramethylammonium) diselenide
;
_cell_volume   1265.740
_exptl_crystal_colour 'red'
_exptl_crystal_density_diffrn 1.607
_exptl_crystal_description 'block'
_diffrn_ambient_temperature 100
#These two values have been output from a single CSD field.
_refine_ls_R_factor_gt 0.0492
_refine_ls_wR_factor_gt 0.0492
_symmetry_cell_setting cubic
_symmetry_space_group_name_H-M 'P a -3'
_symmetry_Int_Tables_number 205
loop_
_symmetry_equiv_pos_site_id
_symmetry_equiv_pos_as_xyz
1 x,y,z
2 1/2-x,-y,1/2+z
3 -x,1/2+y,1/2-z
4 1/2+x,1/2-y,-z
5 z,x,y
6 1/2+z,1/2-x,-y
7 1/2-z,-x,1/2+y
8 -z,1/2+x,1/2-y
9 y,z,x
10 -y,1/2+z,1/2-x
11 1/2+y,1/2-z,-x
12 1/2-y,-z,1/2+x
13 -x,-y,-z
14 -1/2+x,y,-1/2-z
15 x,-1/2-y,-1/2+z
16 -1/2-x,-1/2+y,z
17 -z,-x,-y
18 -1/2-z,-1/2+x,y
19 -1/2+z,x,-1/2-y
20 z,-1/2-x,-1/2+y
21 -y,-z,-x
22 y,-1/2-z,-1/2+x
23 -1/2-y,-1/2+z,x
24 -1/2+y,z,-1/2-x
_cell_length_a 10.8172(2)
_cell_length_b 10.8172(2)
_cell_length_c 10.8172(2)
_cell_angle_alpha 90
_cell_angle_beta 90
_cell_angle_gamma 90
_cell_formula_units_Z 4
loop_
_atom_type_symbol
_atom_type_radius_bond
C 0.68
H 0.23
N 0.68
Se 1.22
loop_
_atom_site_label
_atom_site_type_symbol
_atom_site_fract_x
_atom_site_fract_y
_atom_site_fract_z
Se1 Se 0.56375(2) 0.43625(2) 0.93625(2)
N1 N 0.28533(18) 0.21467(18) 0.78533(18)
C1 C 0.3652(2) 0.1348(2) 0.8652(2)
H1 H 0.40490 0.07330 0.81510
C2 C 0.3623(2) 0.2712(2) 0.6854(2)
H2 H 0.31120 0.32240 0.63400
H3 H 0.39870 0.20690 0.63620
H4 H 0.42650 0.32050 0.72180
H5? H 0.40490 0.07330 0.81510
H6? H 0.40490 0.07330 0.81510
Se1L Se 0.43625(2) 0.56375(2) 1.06375(2)
H1E H 0.31510 0.09510 0.92670
H1K H 0.42670 0.18490 0.90490
C2E C 0.1854(2) 0.1377(2) 0.7288(2)
H2E H 0.13400 0.18880 0.67760
H3E H 0.13620 0.10130 0.79310
H4E H 0.22180 0.07350 0.67950
C2K C 0.2288(2) 0.3146(2) 0.8623(2)
H2K H 0.17760 0.36600 0.81120
H3K H 0.29310 0.36380 0.89870
H4K H 0.17950 0.27820 0.92650
#END

data_CSD_CIF_WUTZOA
_audit_creation_date 2003-05-15
_audit_creation_method CSD-ConQuest-V1
_database_code_CSD WUTZOA
_database_code_depnum_ccdc_archive 'CCDC 192063'
_chemical_formula_sum 'C42 H60 Al6 N6 S6'
_chemical_formula_moiety
;
C42 H60 Al6 N6 S6
;
_journal_coden_Cambridge 1290
_journal_year 2003
_journal_page_first 442
_journal_name_full 'Eur.J.Inorg.Chem. '
loop_
_publ_author_name
"N.D.Reddy"
"S.S.Kumar"
"H.W.Roesky"
"D.Vidovic"
"J.Magull"
"M.Noltemeyer"
"H.-G.Schmidt"
_chemical_name_systematic
;
hexakis(\m~3~-2-Thiophenemethylamido)-hexaethyl-hexa-aluminium
;
_chemical_melting_point 535.15
_cell_volume   4886.172
_exptl_crystal_colour 'colorless'
_exptl_crystal_density_diffrn 1.364
_diffrn_ambient_temperature 133
#These two values have been output from a single CSD field.
_refine_ls_R_factor_gt 0.0404
_refine_ls_wR_factor_gt 0.0404
_symmetry_cell_setting cubic
_symmetry_space_group_name_H-M 'P a -3'
_symmetry_Int_Tables_number 205
loop_
_symmetry_equiv_pos_site_id
_symmetry_equiv_pos_as_xyz
1 x,y,z
2 z,x,y
3 y,z,x
4 1/2+x,y,1/2-z
5 x,1/2-y,1/2+z
6 1/2-x,1/2+y,z
7 1/2-z,1/2+x,y
8 1/2+z,x,1/2-y
9 z,1/2-x,1/2+y
10 y,1/2-z,1/2+x
11 1/2-y,1/2+z,x
12 1/2+y,z,1/2-x
13 -x,-y,-z
14 -z,-x,-y
15 -y,-z,-x
16 -1/2-x,-y,-1/2+z
17 -x,-1/2+y,-1/2-z
18 -1/2+x,-1/2-y,-z
19 -1/2+z,-1/2-x,-y
20 -1/2-z,-x,-1/2+y
21 -z,-1/2+x,-1/2-y
22 -y,-1/2+z,-1/2-x
23 -1/2+y,-1/2-z,-x
24 -1/2-y,-z,-1/2+x
_cell_length_a 16.969(2)
_cell_length_b 16.969(2)
_cell_length_c 16.969(2)
_cell_angle_alpha 90
_cell_angle_beta 90
_cell_angle_gamma 90
_cell_formula_units_Z 4
loop_
_atom_type_symbol
_atom_type_radius_bond
C 0.68
H 0.23
Al 1.14
N 0.68
S 1.02
loop_
_atom_site_label
_atom_site_type_symbol
_atom_site_fract_x
_atom_site_fract_y
_atom_site_fract_z
Al1 Al 0.08933(5) 0.56753(5) 0.06075(5)
S1 S 0.34758(6) 0.55890(6) -0.02856(7)
N1 N 0.12311(14) 0.48135(15) -0.00190(15)
C1 C 0.25384(18) 0.52997(18) -0.05450(19)
C2 C 0.21097(17) 0.4707(2) -0.00426(19)
H1 H 0.22270 0.41720 -0.02440
H2 H 0.23160 0.47400 0.05020
C3 C 0.2331(2) 0.5618(2) -0.1266(2)
H3 H 0.18480 0.55140 -0.15290
C4 C 0.2936(2) 0.6122(2) -0.1566(2)
H4 H 0.28870 0.64080 -0.20450
C5 C 0.2224(2) 0.5907(2) 0.1762(2)
H5 H 0.25360 0.63140 0.20290
H6 H 0.25730 0.55750 0.14440
H7 H 0.19550 0.55820 0.21560
C6 C 0.1621(2) 0.6294(2) 0.1235(2)
H8 H 0.19130 0.66390 0.08660
H9 H 0.12990 0.66440 0.15730
C7 C 0.3572(2) 0.6152(2) -0.1113(3)
H10 H 0.40290 0.64520 -0.12350
Al1H Al 0.06075(5) 0.41067(5) 0.06753(5)
N1H N -0.00190(14) 0.37689(15) -0.01865(15)
Al1V Al 0.06753(5) 0.43925(5) -0.08933(5)
N1V N -0.01865(14) 0.50190(15) -0.12311(15)
Al1L Al -0.08933(5) 0.43247(5) -0.06075(5)
N1L N -0.12311(14) 0.51865(15) 0.00190(15)
Al1T Al -0.06075(5) 0.58933(5) -0.06753(5)
N1T N 0.00190(14) 0.62311(15) 0.01865(15)
Al1J Al -0.06753(5) 0.56075(5) 0.08933(5)
N1J N 0.01865(14) 0.49810(15) 0.12311(15)
C2T C 0.00426(17) 0.71097(20) 0.02930(19)
C1T C 0.05450(18) 0.75384(18) -0.02997(19)
S1T S 0.02856(6) 0.84758(6) -0.05890(7)
C7T C 0.1113(2) 0.8572(2) -0.1152(3)
C4T C 0.1566(2) 0.7936(2) -0.1122(2)
C3T C 0.1266(2) 0.7331(2) -0.0618(2)
H3T H 0.15290 0.68480 -0.05140
H4T H 0.20450 0.78870 -0.14080
H10T H 0.12350 0.90290 -0.14520
H1T H 0.02440 0.72270 0.08280
H2T H -0.05020 0.73160 0.02600
C6H C 0.1235(2) 0.3379(2) 0.1294(2)
C5H C 0.1762(2) 0.2776(2) 0.0907(2)
H5H H 0.20290 0.24640 0.13140
H6H H 0.14440 0.24270 0.05750
H7H H 0.21560 0.30450 0.05820
H8H H 0.08660 0.30870 0.16390
H9H H 0.15730 0.37010 0.16440
C2J C 0.02930(17) 0.49574(20) 0.21097(19)
C1J C -0.02997(18) 0.44550(18) 0.25384(19)
S1J S -0.05890(6) 0.47144(6) 0.34758(7)
C7J C -0.1152(2) 0.3887(2) 0.3572(3)
C4J C -0.1122(2) 0.3434(2) 0.2936(2)
C3J C -0.0618(2) 0.3734(2) 0.2331(2)
H3J H -0.05140 0.34710 0.18480
H4J H -0.14080 0.29550 0.28870
H10J H -0.14520 0.37650 0.40290
H1J H 0.08280 0.47560 0.22270
H2J H 0.02600 0.55020 0.23160
C2L C -0.21097(17) 0.5293(2) 0.00426(19)
C1L C -0.25384(18) 0.47003(18) 0.05450(19)
S1L S -0.34758(6) 0.44110(6) 0.02856(7)
C7L C -0.3572(2) 0.3848(2) 0.1113(3)
C4L C -0.2936(2) 0.3878(2) 0.1566(2)
C3L C -0.2331(2) 0.4382(2) 0.1266(2)
H3L H -0.18480 0.44860 0.15290
H4L H -0.28870 0.35920 0.20450
H10L H -0.40290 0.35480 0.12350
H1L H -0.22270 0.58280 0.02440
H2L H -0.23160 0.52600 -0.05020
C6J C -0.1294(2) 0.6235(2) 0.1621(2)
C5J C -0.0907(2) 0.6762(2) 0.2224(2)
H5J H -0.13140 0.70290 0.25360
H6J H -0.05750 0.64440 0.25730
H7J H -0.05820 0.71560 0.19550
H8J H -0.16390 0.58660 0.19130
H9J H -0.16440 0.65730 0.12990
C2V C -0.02930(17) 0.50426(20) -0.21097(19)
C1V C 0.02997(18) 0.55450(18) -0.25384(19)
S1V S 0.05890(6) 0.52856(6) -0.34758(7)
C7V C 0.1152(2) 0.6113(2) -0.3572(3)
C4V C 0.1122(2) 0.6566(2) -0.2936(2)
C3V C 0.0618(2) 0.6266(2) -0.2331(2)
H3V H 0.05140 0.65290 -0.18480
H4V H 0.14080 0.70450 -0.28870
H10V H 0.14520 0.62350 -0.40290
H1V H -0.08280 0.52440 -0.22270
H2V H -0.02600 0.44980 -0.23160
C6T C -0.1235(2) 0.6621(2) -0.1294(2)
C5T C -0.1762(2) 0.7224(2) -0.0907(2)
H5T H -0.20290 0.75360 -0.13140
H6T H -0.14440 0.75730 -0.05750
H7T H -0.21560 0.69550 -0.05820
H8T H -0.08660 0.69130 -0.16390
H9T H -0.15730 0.62990 -0.16440
C2H C -0.00426(17) 0.28903(20) -0.02930(19)
C1H C -0.05450(18) 0.24616(18) 0.02997(19)
S1H S -0.02856(6) 0.15242(6) 0.05890(7)
C7H C -0.1113(2) 0.1428(2) 0.1152(3)
C4H C -0.1566(2) 0.2064(2) 0.1122(2)
C3H C -0.1266(2) 0.2669(2) 0.0618(2)
H3H H -0.15290 0.31520 0.05140
H4H H -0.20450 0.21130 0.14080
H10H H -0.12350 0.09710 0.14520
H1H H -0.02440 0.27730 -0.08280
H2H H 0.05020 0.26840 -0.02600
C6L C -0.1621(2) 0.3706(2) -0.1235(2)
C5L C -0.2224(2) 0.4093(2) -0.1762(2)
H5L H -0.25360 0.36860 -0.20290
H6L H -0.25730 0.44250 -0.14440
H7L H -0.19550 0.44180 -0.21560
H8L H -0.19130 0.33610 -0.08660
H9L H -0.12990 0.33560 -0.15730
C6V C 0.1294(2) 0.3765(2) -0.1621(2)
C5V C 0.0907(2) 0.3238(2) -0.2224(2)
H5V H 0.13140 0.29710 -0.25360
H6V H 0.05750 0.35560 -0.25730
H7V H 0.05820 0.28440 -0.19550
H8V H 0.16390 0.41340 -0.19130
H9V H 0.16440 0.34270 -0.12990
#END

data_CSD_CIF_XAJMOK01
_audit_creation_date 2001-01-24
_audit_creation_method CSD-ConQuest-V1
_database_code_CSD XAJMOK01
_database_code_depnum_ccdc_archive 'CCDC 1295274'
_chemical_formula_sum 'C54 H108 N9 S6 Sc1'
_chemical_formula_moiety
;
3(C16 H36 N1 1+),C6 N6 S6 Sc1 3-
;
_journal_coden_Cambridge 119
_journal_volume 479
_journal_year 1999
_journal_page_first 31
_journal_name_full 'J.Mol.Struct. '
loop_
_publ_author_name
"D.F.Mullica"
"J.A.Kautz"
"J.M.Farmer"
"E.L.Sappenfield"
_chemical_name_systematic
;
tris(Tetra-n-butylammonium) hexakis(isothiocyanato)-scandium(iii)
;
_chemical_melting_point 441.65
_cell_volume  14941.467
_exptl_crystal_colour 'colorless'
_exptl_crystal_density_diffrn 1.0
_exptl_special_details
;
Melting point range 441.65-442.15K
cubic polymorph

;
_exptl_crystal_description 'cubic'
_diffrn_ambient_temperature ?
_diffrn_special_details
;
The study was carried out at room temperature,in the range 283-303K

;
#These two values have been output from a single CSD field.
_refine_ls_R_factor_gt 0.032
_refine_ls_wR_factor_gt 0.032
_symmetry_cell_setting cubic
_symmetry_space_group_name_H-M 'P a -3'
_symmetry_Int_Tables_number 205
loop_
_symmetry_equiv_pos_site_id
_symmetry_equiv_pos_as_xyz
1 x,y,z
2 1/2-x,-y,1/2+z
3 1/2+x,1/2-y,-z
4 z,x,y
5 -x,1/2+y,1/2-z
6 1/2-z,-x,1/2+y
7 1/2+z,1/2-x,-y
8 -z,1/2+x,1/2-y
9 y,z,x
10 1/2+y,1/2-z,-x
11 -y,1/2+z,1/2-x
12 1/2-y,-z,1/2+x
13 -x,-y,-z
14 -1/2+x,y,-1/2-z
15 -1/2-x,-1/2+y,z
16 -z,-x,-y
17 x,-1/2-y,-1/2+z
18 -1/2+z,x,-1/2-y
19 -1/2-z,-1/2+x,y
20 z,-1/2-x,-1/2+y
21 -y,-z,-x
22 -1/2-y,-1/2+z,x
23 y,-1/2-z,-1/2+x
24 -1/2+y,z,-1/2-x
_cell_length_a 24.630(4)
_cell_length_b 24.630(4)
_cell_length_c 24.630(4)
_cell_angle_alpha 90
_cell_angle_beta 90
_cell_angle_gamma 90
_cell_formula_units_Z 8
loop_
_atom_type_symbol
_atom_type_radius_bond
C 0.68
N 0.68
S 1.02
Sc 1.44
loop_
_atom_site_label
_atom_site_type_symbol
_atom_site_fract_x
_atom_site_fract_y
_atom_site_fract_z
Sc1 Sc 0.1921(1) 0.1921(1) 0.1921(1)
N1 N 0.1640(5) 0.2530(5) 0.2490(5)
C1 C 0.1566(5) 0.2886(4) 0.2787(5)
S1 S 0.1458(2) 0.3362(2) 0.3210(2)
N2 N 0.1345(5) 0.2247(5) 0.1352(5)
C2 C 0.1024(4) 0.2445(5) 0.1066(5)
S2 S 0.0595(2) 0.2718(2) 0.0653(2)
N3 N 0.0306(4) 0.7374(4) 0.2427(4)
C3 C 0.0788(5) 0.7056(6) 0.2207(5)
C4 C 0.0644(6) 0.6550(7) 0.1920(6)
C5 C 0.1109(6) 0.6281(7) 0.1647(7)
C6 C 0.0951(9) 0.5774(8) 0.1348(9)
C7 C -0.0024(5) 0.7033(6) 0.2815(6)
C8 C 0.0281(7) 0.6857(7) 0.3323(6)
C9 C -0.0028(7) 0.6409(7) 0.3637(7)
C10 C 0.0256(8) 0.6226(8) 0.4128(7)
C11 C 0.0531(6) 0.7871(6) 0.2691(6)
C12 C 0.0124(7) 0.8250(7) 0.2916(7)
C13 C 0.0399(9) 0.8777(9) 0.3092(9)
C14 C 0.0050(9) 0.9186(9) 0.3368(10)
C15 C -0.0080(5) 0.7523(6) 0.1981(6)
C16 C 0.0145(6) 0.7884(8) 0.1543(7)
C17 C -0.0156(6) 0.7915(8) 0.1023(7)
C18 C 0.0108(7) 0.8259(8) 0.0602(7)
N1C N 0.2490(5) 0.1640(5) 0.2530(5)
C1C C 0.2787(5) 0.1566(4) 0.2886(5)
S1C S 0.3210(2) 0.1458(2) 0.3362(2)
N1H N 0.2530(5) 0.2490(5) 0.1640(5)
C1H C 0.2886(5) 0.2787(4) 0.1566(5)
S1H S 0.3362(2) 0.3210(2) 0.1458(2)
N2C N 0.1352(5) 0.1345(5) 0.2247(5)
C2C C 0.1066(4) 0.1024(5) 0.2445(5)
S2C S 0.0653(2) 0.0595(2) 0.2718(2)
N2H N 0.2247(5) 0.1352(5) 0.1345(5)
C2H C 0.2445(4) 0.1066(5) 0.1024(5)
S2H S 0.2718(2) 0.0653(2) 0.0595(2)
#END

data_CSD_CIF_XAJVOW
_audit_creation_date 2016-01-18
_audit_creation_method CSD-ConQuest-V1
_database_code_CSD XAJVOW
_database_code_depnum_ccdc_archive 'CCDC 1407915'
_chemical_formula_sum 'C36 H39 Co1 F24 K1 N9 P4'
_chemical_formula_moiety
;
C36 H39 Co1 N9 3+,F24 K1 P4 3-
;
_journal_coden_Cambridge 36
_journal_volume 812
_journal_year 2016
_journal_page_first 87
_journal_name_full 'J.Organomet.Chem. '
loop_
_publ_author_name
"S.Saha"
"M.Kaur"
"Kuldeep Singh"
"J.K.Bera"
_chemical_name_systematic
;
tris(1-(But-3-en-1-yl)-3-(pyridin-2-yl)-1,3-dihydro-2H-imidazol-2-ylidene)-cob
alt(iii) tetrakis(hexafluorophosphate)-potassium
;
_cell_volume   9774.401
_exptl_crystal_colour 'yellow'
_exptl_crystal_density_diffrn 1.734
_exptl_special_details
;
Air-sensitive

;
_exptl_crystal_description 'block'
_diffrn_ambient_temperature 100
#These two values have been output from a single CSD field.
_refine_ls_R_factor_gt 0.0452
_refine_ls_wR_factor_gt 0.0452
_symmetry_cell_setting cubic
_symmetry_space_group_name_H-M 'P a -3'
_symmetry_Int_Tables_number 205
loop_
_symmetry_equiv_pos_site_id
_symmetry_equiv_pos_as_xyz
1 x,y,z
2 z,x,y
3 y,z,x
4 1/2-y,-z,1/2+x
5 1/2+z,1/2-x,-y
6 -y,1/2+z,1/2-x
7 1/2-z,-x,1/2+y
8 -z,1/2+x,1/2-y
9 1/2+y,1/2-z,-x
10 1/2-x,-y,1/2+z
11 1/2+x,1/2-y,-z
12 -x,1/2+y,1/2-z
13 -x,-y,-z
14 -z,-x,-y
15 -y,-z,-x
16 -1/2+y,z,-1/2-x
17 -1/2-z,-1/2+x,y
18 y,-1/2-z,-1/2+x
19 -1/2+z,x,-1/2-y
20 z,-1/2-x,-1/2+y
21 -1/2-y,-1/2+z,x
22 -1/2+x,y,-1/2-z
23 -1/2-x,-1/2+y,z
24 x,-1/2-y,-1/2+z
_cell_length_a 21.3811(6)
_cell_length_b 21.3811(6)
_cell_length_c 21.3811(6)
_cell_angle_alpha 90
_cell_angle_beta 90
_cell_angle_gamma 90
_cell_formula_units_Z 8
loop_
_atom_type_symbol
_atom_type_radius_bond
C 0.68
H 0.23
Co 1.26
F 0.64
K 2.03
N 0.68
P 1.05
loop_
_atom_site_label
_atom_site_type_symbol
_atom_site_fract_x
_atom_site_fract_y
_atom_site_fract_z
Co1 Co 0.130946(13) 0.369054(13) 0.630946(13)
N1 N 0.23199(9) 0.40361(10) 0.72721(9)
C1 C 0.00377(11) 0.42868(11) 0.64311(11)
H1 H -0.00850 0.40570 0.60710
N2 N 0.14060(9) 0.44371(9) 0.73389(9)
C2 C -0.03901(11) 0.46768(12) 0.67145(12)
H2 H -0.07990 0.47200 0.65470
N3 N 0.06263(9) 0.42221(9) 0.66505(9)
C3 C -0.02178(12) 0.50043(12) 0.72449(13)
H3 H -0.05080 0.52760 0.74440
C4 C 0.03778(12) 0.49344(11) 0.74832(12)
H4 H 0.05050 0.51460 0.78530
C5 C 0.07816(11) 0.45446(10) 0.71631(11)
C6 C 0.17578(10) 0.40334(10) 0.69971(10)
C7 C 0.17462(13) 0.46901(13) 0.78307(12)
H5 H 0.16030 0.49810 0.81350
C8 C 0.23159(13) 0.44389(13) 0.77871(12)
H6 H 0.26580 0.45200 0.80580
C9 C 0.28774(11) 0.36675(13) 0.71110(12)
H7 H 0.27780 0.33850 0.67580
H8 H 0.30000 0.34070 0.74730
C10 C 0.34204(14) 0.40915(16) 0.69301(17)
H9 H 0.32930 0.43590 0.65750
H10 H 0.35230 0.43680 0.72870
C11 C 0.39827(15) 0.37303(18) 0.67526(17)
H11 H 0.41320 0.34270 0.70400
C12 C 0.42878(18) 0.3799(2) 0.62294(19)
H12 H 0.41520 0.40980 0.59300
H13 H 0.46460 0.35500 0.61470
K1 K 0.16527(3) 0.66527(3) 0.83473(3)
P1 P 0.10423(3) 0.65359(3) 0.68022(3)
F1 F 0.06955(8) 0.64431(8) 0.74601(7)
P2 P 0.06677(3) 0.56677(3) 0.93323(3)
F2 F 0.06110(8) 0.60127(8) 0.64904(8)
F3 F 0.13975(9) 0.66317(9) 0.61570(8)
F4 F 0.05477(8) 0.70602(8) 0.66167(8)
F5 F 0.14833(8) 0.70574(8) 0.71225(8)
F6 F 0.15347(8) 0.60111(9) 0.70064(10)
F7 F 0.00743(10) 0.59054(11) 0.96994(11)
F8 F 0.10434(12) 0.62743(10) 0.95439(13)
N1C N 0.09639(9) 0.27279(10) 0.73199(9)
C1C C 0.07132(11) 0.35689(11) 0.50377(11)
H1C H 0.09430 0.39290 0.49150
N2C N 0.05629(9) 0.26611(9) 0.64060(9)
C2C C 0.03232(11) 0.32855(12) 0.46099(12)
H2C H 0.02800 0.34530 0.42010
N3C N 0.07779(9) 0.33495(9) 0.56263(9)
C3C C -0.00043(12) 0.27551(12) 0.47822(13)
H3C H -0.02760 0.25560 0.44920
C4C C 0.00656(12) 0.25168(11) 0.53778(12)
H4C H -0.01460 0.21470 0.55050
C5C C 0.04554(11) 0.28369(10) 0.57816(11)
C6C C 0.09666(10) 0.30029(10) 0.67578(10)
C7C C 0.03099(13) 0.21693(13) 0.67462(12)
H5C H 0.00190 0.18650 0.66030
C8C C 0.05611(13) 0.22129(13) 0.73159(12)
H6C H 0.04800 0.19420 0.76580
C9C C 0.13325(11) 0.28890(13) 0.78774(12)
H7C H 0.16150 0.32420 0.77780
H8C H 0.15930 0.25270 0.80000
C10C C 0.09085(14) 0.30699(16) 0.84204(17)
H9C H 0.06410 0.34250 0.82930
H10C H 0.06320 0.27130 0.85230
C11C C 0.12697(15) 0.32474(18) 0.89827(17)
H11C H 0.15730 0.29600 0.91320
C12C C 0.12010(18) 0.37706(20) 0.92878(19)
H12C H 0.09020 0.40700 0.91520
H13C H 0.14500 0.38530 0.96460
N1D N 0.22721(9) 0.26801(10) 0.59639(9)
C1D C 0.14311(11) 0.49623(11) 0.57132(11)
H1D H 0.10710 0.50850 0.59430
N2D N 0.23389(9) 0.35940(9) 0.55629(9)
C2D C 0.17145(11) 0.53901(12) 0.53232(12)
H2D H 0.15470 0.57990 0.52800
N3D N 0.16505(9) 0.43737(9) 0.57779(9)
C3D C 0.22449(12) 0.52178(12) 0.49957(13)
H3D H 0.24440 0.55080 0.47240
C4D C 0.24832(12) 0.46222(11) 0.50656(12)
H4D H 0.28530 0.44950 0.48540
C5D C 0.21631(11) 0.42184(10) 0.54554(11)
C6D C 0.19971(10) 0.32422(10) 0.59666(10)
C7D C 0.28307(13) 0.32538(13) 0.53099(12)
H5D H 0.31350 0.33970 0.50190
C8D C 0.27871(13) 0.26841(13) 0.55611(12)
H6D H 0.30580 0.23420 0.54800
C9D C 0.21110(11) 0.21226(13) 0.63325(12)
H7D H 0.17580 0.22220 0.66150
H8D H 0.24730 0.20000 0.65930
C10D C 0.19301(14) 0.15796(16) 0.59085(17)
H9D H 0.15750 0.17070 0.56410
H10D H 0.22870 0.14770 0.56320
C11D C 0.17526(15) 0.10173(18) 0.62697(17)
H11D H 0.20400 0.08680 0.65730
C12D C 0.12294(18) 0.07122(20) 0.62010(19)
H12D H 0.09300 0.08480 0.59020
H13D H 0.11470 0.03540 0.64500
F7G F 0.03006(10) 0.50743(11) 0.90946(11)
F8G F 0.04561(12) 0.60434(10) 0.87257(13)
F7H F 0.09054(10) 0.53006(11) 0.99257(11)
F8H F 0.12743(12) 0.54561(10) 0.89566(13)
P1G P 0.31978(3) 0.60423(3) 0.84641(3)
F1G F 0.25399(8) 0.56955(8) 0.85569(7)
F2G F 0.35096(8) 0.56110(8) 0.89873(8)
F3G F 0.38430(9) 0.63975(9) 0.83683(8)
F4G F 0.33833(8) 0.55477(8) 0.79398(8)
F5G F 0.28775(8) 0.64833(8) 0.79426(8)
F6G F 0.29936(8) 0.65347(9) 0.89889(10)
P1H P 0.15359(3) 0.81978(3) 0.89577(3)
F1H F 0.14431(8) 0.75399(8) 0.93045(7)
F2H F 0.10127(8) 0.85096(8) 0.93890(8)
F3H F 0.16317(9) 0.88430(9) 0.86025(8)
F4H F 0.20602(8) 0.83833(8) 0.94523(8)
F5H F 0.20574(8) 0.78775(8) 0.85167(8)
F6H F 0.10111(8) 0.79936(9) 0.84653(10)
#END

data_CSD_CIF_XANRUZ
_audit_creation_date 2001-01-24
_audit_creation_method CSD-ConQuest-V1
_database_code_CSD XANRUZ
_database_code_depnum_ccdc_archive 'CCDC 145070'
_chemical_formula_sum 'C27 H63 P1 Si3'
_chemical_formula_moiety
;
C27 H63 P1 Si3
;
_journal_coden_Cambridge 29
_journal_volume 626
_journal_year 2000
_journal_page_first 2264
_journal_name_full 'Z.Anorg.Allg.Chem. '
loop_
_publ_author_name
"M.Driess"
"K.Merz"
"C.Monse"
_chemical_name_systematic
;
tris(Triisopropylsilyl)phosphane
;
_cell_volume   6435.894
_exptl_crystal_density_diffrn 1.038
_exptl_crystal_description 'octahedral'
_diffrn_ambient_temperature 153
#These two values have been output from a single CSD field.
_refine_ls_R_factor_gt 0.0379
_refine_ls_wR_factor_gt 0.0379
_symmetry_cell_setting cubic
_symmetry_space_group_name_H-M 'P a -3'
_symmetry_Int_Tables_number 205
loop_
_symmetry_equiv_pos_site_id
_symmetry_equiv_pos_as_xyz
1 x,y,z
2 z,x,y
3 y,z,x
4 1/2-x,-y,1/2+z
5 -x,1/2+y,1/2-z
6 1/2+x,1/2-y,-z
7 1/2+z,1/2-x,-y
8 1/2-z,-x,1/2+y
9 -z,1/2+x,1/2-y
10 -y,1/2+z,1/2-x
11 1/2+y,1/2-z,-x
12 1/2-y,-z,1/2+x
13 -x,-y,-z
14 -z,-x,-y
15 -y,-z,-x
16 -1/2+x,y,-1/2-z
17 x,-1/2-y,-1/2+z
18 -1/2-x,-1/2+y,z
19 -1/2-z,-1/2+x,y
20 -1/2+z,x,-1/2-y
21 z,-1/2-x,-1/2+y
22 y,-1/2-z,-1/2+x
23 -1/2-y,-1/2+z,x
24 -1/2+y,z,-1/2-x
_cell_length_a 18.601(2)
_cell_length_b 18.601(2)
_cell_length_c 18.601(2)
_cell_angle_alpha 90
_cell_angle_beta 90
_cell_angle_gamma 90
_cell_formula_units_Z 8
loop_
_atom_type_symbol
_atom_type_radius_bond
C 0.68
H 0.23
P 1.05
Si 1.20
loop_
_atom_site_label
_atom_site_type_symbol
_atom_site_fract_x
_atom_site_fract_y
_atom_site_fract_z
Si1 Si 0.12829(3) 0.54945(3) 0.77853(3)
P1 P 0.13197(3) 0.63197(3) 0.86803(3)
C1 C 0.20444(11) 0.56034(12) 0.71079(11)
C2 C 0.04112(11) 0.55798(12) 0.72428(11)
C3 C 0.27890(13) 0.53883(16) 0.73713(14)
C4 C -0.02357(13) 0.51790(14) 0.75539(15)
C5 C 0.08337(14) 0.43726(14) 0.87826(13)
C6 C 0.04928(15) 0.53511(18) 0.64509(13)
C7 C 0.20720(15) 0.63539(14) 0.67640(14)
C8 C 0.13902(16) 0.39771(13) 0.76211(14)
C9 C 0.13800(12) 0.45685(11) 0.81996(11)
H1 H 0.0346(14) 0.4273(13) 0.8585(12)
H2 H 0.1897(11) 0.5268(12) 0.6746(12)
H3 H 0.1839(13) 0.4578(12) 0.8435(12)
H4 H 0.2972(13) 0.5747(14) 0.7698(14)
H5 H 0.0791(13) 0.4762(14) 0.9135(13)
H6 H 0.1505(14) 0.3519(15) 0.7820(14)
H7 H 0.1757(14) 0.4068(13) 0.7262(14)
H8 H 0.3125(16) 0.5411(14) 0.6987(16)
H9 H 0.0976(13) 0.3956(14) 0.9026(13)
H10 H 0.2801(14) 0.4892(16) 0.7600(14)
H11 H 0.0640(15) 0.4830(18) 0.6415(15)
H12 H 0.0294(13) 0.6088(14) 0.7229(13)
H13 H 0.2465(16) 0.6369(15) 0.6388(16)
H14 H 0.0905(18) 0.3949(17) 0.7361(17)
H15 H 0.0015(17) 0.5361(15) 0.6192(16)
H16 H 0.0855(17) 0.5614(15) 0.6188(15)
H17 H 0.2229(13) 0.6705(15) 0.7092(15)
H18 H 0.1598(15) 0.6499(14) 0.6558(14)
H19 H -0.0320(13) 0.5244(13) 0.8076(15)
H20 H -0.0668(15) 0.5329(14) 0.7325(14)
H21 H -0.0172(15) 0.4656(17) 0.7464(16)
Si1J Si 0.04945(3) 0.72147(3) 0.87171(3)
C1J C 0.06034(11) 0.78921(12) 0.79556(11)
C3J C 0.03883(13) 0.76287(16) 0.72110(14)
H4J H 0.0747(13) 0.7302(14) 0.7028(14)
H8J H 0.0411(16) 0.8013(14) 0.6875(16)
H10J H -0.0108(14) 0.7400(16) 0.7199(14)
C7J C 0.13539(15) 0.82360(14) 0.79280(14)
H13J H 0.1369(16) 0.8612(15) 0.7535(16)
H17J H 0.1705(13) 0.7908(15) 0.7771(15)
H18J H 0.1499(15) 0.8442(14) 0.8402(14)
H2J H 0.0268(11) 0.8254(12) 0.8103(12)
C2J C 0.05798(11) 0.77572(12) 0.95888(11)
C4J C 0.01790(13) 0.74461(14) 1.02357(15)
H19J H 0.0244(13) 0.6924(13) 1.0320(15)
H20J H 0.0329(15) 0.7675(14) 1.0668(14)
H21J H -0.0344(15) 0.7536(17) 1.0172(16)
C6J C 0.03511(15) 0.85491(18) 0.95072(13)
H11J H -0.0170(15) 0.8585(18) 0.9360(15)
H15J H 0.0361(17) 0.8808(15) 0.9985(16)
H16J H 0.0614(17) 0.8812(15) 0.9145(15)
H12J H 0.1088(13) 0.7771(14) 0.9706(13)
C9J C -0.04315(12) 0.68004(11) 0.86200(11)
C5J C -0.06274(14) 0.62174(14) 0.91663(13)
H1J H -0.0727(14) 0.6415(13) 0.9654(12)
H5J H -0.0238(13) 0.5865(14) 0.9209(13)
H9J H -0.1044(13) 0.5974(14) 0.9024(13)
C8J C -0.10229(16) 0.73789(13) 0.86098(14)
H6J H -0.1481(14) 0.7180(15) 0.8495(14)
H7J H -0.0932(14) 0.7738(13) 0.8243(14)
H14J H -0.1051(18) 0.7639(17) 0.9095(17)
H3J H -0.0422(13) 0.6565(12) 0.8161(12)
Si1H Si 0.22147(3) 0.62829(3) 0.95055(3)
C1H C 0.28921(11) 0.70444(12) 0.93966(11)
C3H C 0.26287(13) 0.77890(16) 0.96117(14)
H4H H 0.2302(13) 0.7972(14) 0.9253(14)
H8H H 0.3013(16) 0.8125(14) 0.9589(16)
H10H H 0.2400(14) 0.7801(16) 1.0108(14)
C7H C 0.32360(15) 0.70720(14) 0.86461(14)
H13H H 0.3612(16) 0.7465(15) 0.8631(16)
H17H H 0.2908(13) 0.7229(15) 0.8295(15)
H18H H 0.3442(15) 0.6598(14) 0.8501(14)
H2H H 0.3254(11) 0.6897(12) 0.9732(12)
C2H C 0.27572(11) 0.54112(12) 0.94202(11)
C4H C 0.24461(13) 0.47643(14) 0.98210(15)
H19H H 0.1924(13) 0.4680(13) 0.9756(15)
H20H H 0.2675(15) 0.4332(14) 0.9671(14)
H21H H 0.2536(15) 0.4828(17) 1.0344(16)
C6H C 0.35491(15) 0.54928(18) 0.96489(13)
H11H H 0.3585(15) 0.5640(18) 1.0170(15)
H15H H 0.3808(17) 0.5015(15) 0.9639(16)
H16H H 0.3812(17) 0.5855(15) 0.9386(15)
H12H H 0.2771(13) 0.5294(14) 0.8912(13)
C9H C 0.18004(12) 0.63800(11) 1.04315(11)
C5H C 0.12174(14) 0.58337(14) 1.06274(13)
H1H H 0.1415(14) 0.5346(13) 1.0727(12)
H5H H 0.0865(13) 0.5791(14) 1.0238(13)
H9H H 0.0974(13) 0.5976(14) 1.1044(13)
C8H C 0.23789(16) 0.63902(13) 1.10229(14)
H6H H 0.2180(14) 0.6505(15) 1.1481(14)
H7H H 0.2738(14) 0.6757(13) 1.0932(14)
H14H H 0.2639(18) 0.5905(17) 1.1051(17)
H3H H 0.1565(13) 0.6839(12) 1.0422(12)
#END

data_CSD_CIF_XEMXET
_audit_creation_date 2006-10-31
_audit_creation_method CSD-ConQuest-V1
_database_code_CSD XEMXET
_database_code_depnum_ccdc_archive 'CCDC 620125'
_chemical_formula_sum 'C40 H51 Br3 Ge1 O3'
_chemical_formula_moiety
;
C34 H45 Br3 Ge1 O3,C6 H6
;
_journal_coden_Cambridge 579
_journal_volume 25
_journal_year 2006
_journal_page_first 3388
_journal_name_full 'Organometallics '
loop_
_publ_author_name
"K.Iwanaga"
"J.Kobayashi"
"T.Kawashima"
"N.Takagi"
"S.Nagase"
_chemical_name_systematic
;
(tris(3-t-Butyl-6-methoxyphenyl)methyl)-tribromo-germane benzene solvate
;
_chemical_melting_point 455.05
_cell_volume   7655.507
_exptl_crystal_colour 'yellow'
_exptl_crystal_density_diffrn 1.548
_exptl_special_details
;
Melts with decomposition.

;
_exptl_crystal_preparation 'benzene/THF'
_diffrn_ambient_temperature 120
#These two values have been output from a single CSD field.
_refine_ls_R_factor_gt 0.0392
_refine_ls_wR_factor_gt 0.0392
_symmetry_cell_setting cubic
_symmetry_space_group_name_H-M 'P a 3'
_symmetry_Int_Tables_number 205
loop_
_symmetry_equiv_pos_site_id
_symmetry_equiv_pos_as_xyz
1 x,y,z
2 z,x,y
3 y,z,x
4 1/2-x,-y,1/2+z
5 1/2+x,1/2-y,-z
6 -x,1/2+y,1/2-z
7 1/2-z,-x,1/2+y
8 -y,1/2+z,1/2-x
9 1/2+z,1/2-x,-y
10 1/2-y,-z,1/2+x
11 -z,1/2+x,1/2-y
12 1/2+y,1/2-z,-x
13 -x,-y,-z
14 -z,-x,-y
15 -y,-z,-x
16 -1/2+x,y,-1/2-z
17 -1/2-x,-1/2+y,z
18 x,-1/2-y,-1/2+z
19 -1/2+z,x,-1/2-y
20 y,-1/2-z,-1/2+x
21 -1/2-z,-1/2+x,y
22 -1/2+y,z,-1/2-x
23 z,-1/2-x,-1/2+y
24 -1/2-y,-1/2+z,x
_cell_length_a 19.7087(5)
_cell_length_b 19.7087(5)
_cell_length_c 19.7087(5)
_cell_angle_alpha 90
_cell_angle_beta 90
_cell_angle_gamma 90
_cell_formula_units_Z 8
loop_
_atom_type_symbol
_atom_type_radius_bond
C 0.68
H 0.23
Br 1.21
Ge 1.17
O 0.68
loop_
_atom_site_label
_atom_site_type_symbol
_atom_site_fract_x
_atom_site_fract_y
_atom_site_fract_z
Br1 Br 0.25070(2) -0.16703(3) 0.81593(2)
Ge1 Ge 0.28610(2) -0.21390(2) 0.71390(2)
C1 C 0.34652(19) -0.15348(19) 0.65348(19)
C2 C 0.3407(2) -0.08135(19) 0.68037(18)
C3 C 0.2770(2) -0.0506(2) 0.68698(19)
C4 C 0.2720(2) 0.0181(2) 0.7048(2)
H1 H 0.22870 0.03890 0.70900
C5 C 0.3303(2) 0.0553(2) 0.7162(2)
H2 H 0.32660 0.10210 0.72710
C6 C 0.3945(2) 0.0256(2) 0.7122(2)
C7 C 0.3981(2) -0.0425(2) 0.6930(2)
H3 H 0.44140 -0.06300 0.68820
O1 O 0.22308(14) -0.09184(15) 0.67370(15)
C8 C 0.1570(2) -0.0666(3) 0.6877(3)
H4 H 0.15440 -0.05230 0.73520
H5 H 0.12350 -0.10250 0.67940
H6 H 0.14740 -0.02790 0.65810
C9 C 0.4590(2) 0.0673(2) 0.7266(2)
C10 C 0.4490(3) 0.1093(3) 0.7915(3)
H7 H 0.48970 0.13660 0.80000
H8 H 0.44120 0.07880 0.83000
H9 H 0.40980 0.13940 0.78590
C11 C 0.4727(3) 0.1144(3) 0.6666(3)
H10 H 0.51200 0.14320 0.67680
H11 H 0.43280 0.14300 0.65860
H12 H 0.48210 0.08730 0.62600
C12 C 0.5210(2) 0.0218(2) 0.7374(3)
H13 H 0.53150 -0.00210 0.69520
H14 H 0.51120 -0.01130 0.77320
H15 H 0.55990 0.04970 0.75090
C13 C 0.4861(13) 0.0369(8) 0.0505(8)
H16 H 0.47540 0.06500 0.08820
Br1K Br 0.33297(2) -0.31593(3) 0.74930(2)
Br1J Br 0.18407(2) -0.24930(3) 0.66703(2)
C2J C 0.31963(20) -0.15930(19) 0.58135(18)
C2K C 0.41865(20) -0.18037(19) 0.65930(18)
C3J C 0.31302(20) -0.2230(2) 0.55060(19)
C3K C 0.4494(2) -0.18698(20) 0.72300(19)
C4J C 0.2952(2) -0.2280(2) 0.4819(2)
C4K C 0.5181(2) -0.2048(2) 0.7280(2)
H1J H 0.29100 -0.27130 0.46110
H1K H 0.53890 -0.20900 0.77130
C5J C 0.2838(2) -0.1697(2) 0.4447(2)
C5K C 0.5553(2) -0.2162(2) 0.6697(2)
H2J H 0.27290 -0.17340 0.39790
H2K H 0.60210 -0.22710 0.67340
C6J C 0.2878(2) -0.1055(2) 0.4744(2)
C6K C 0.5256(2) -0.2122(2) 0.6055(2)
C7J C 0.3070(2) -0.1019(2) 0.5425(2)
C7K C 0.4575(2) -0.1930(2) 0.6019(2)
H3J H 0.31180 -0.05860 0.56300
H3K H 0.43700 -0.18820 0.55860
O1J O 0.32630(14) -0.27692(15) 0.59184(15)
O1K O 0.40816(14) -0.17370(15) 0.77692(15)
C8J C 0.3123(2) -0.3430(3) 0.5666(3)
C8K C 0.4334(2) -0.1877(3) 0.8430(3)
H4J H 0.26480 -0.34560 0.55230
H4K H 0.44770 -0.23520 0.84560
H5J H 0.32060 -0.37650 0.60250
H5K H 0.39750 -0.17940 0.87650
H6J H 0.34190 -0.35260 0.52790
H6K H 0.47210 -0.15810 0.85260
C9J C 0.2734(2) -0.0410(2) 0.4327(2)
C9K C 0.5673(2) -0.2266(2) 0.5410(2)
C10J C 0.2085(3) -0.0510(3) 0.3907(3)
C10K C 0.6093(3) -0.2915(3) 0.5510(3)
H7J H 0.20000 -0.01030 0.36340
H7K H 0.63660 -0.30000 0.51030
H8J H 0.17000 -0.05880 0.42120
H8K H 0.57880 -0.33000 0.55880
H9J H 0.21410 -0.09020 0.36060
H9K H 0.63940 -0.28590 0.59020
C11J C 0.3334(3) -0.0273(3) 0.3856(3)
C11K C 0.6144(3) -0.1666(3) 0.5273(3)
H10J H 0.32320 0.01200 0.35680
H10K H 0.64320 -0.17680 0.48800
H11J H 0.34140 -0.06720 0.35700
H11K H 0.64300 -0.15860 0.56720
H12J H 0.37400 -0.01790 0.41270
H12K H 0.58730 -0.12600 0.51790
C12J C 0.2626(2) 0.0210(2) 0.4782(3)
C12K C 0.5218(2) -0.2374(2) 0.4790(3)
H13J H 0.30480 0.03150 0.50210
H13K H 0.49790 -0.19520 0.46850
H14J H 0.22680 0.01120 0.51130
H14K H 0.48870 -0.27320 0.48880
H15J H 0.24910 0.05990 0.45030
H15K H 0.54970 -0.25090 0.44010
C13T C 0.4495(13) -0.0139(8) 0.0369(8)
C13I C 0.4631(13) -0.0505(8) -0.0139(8)
C13L C 0.5139(13) -0.0369(8) -0.0505(8)
C13H C 0.5505(13) 0.0139(8) -0.0369(8)
C13U C 0.5369(13) 0.0505(8) 0.0139(8)
H16U H 0.56500 0.08820 0.02460
H16H H 0.58820 0.02460 -0.06500
H16L H 0.52460 -0.06500 -0.08820
H16I H 0.43500 -0.08820 -0.02460
H16T H 0.41180 -0.02460 0.06500
#END

data_CSD_CIF_XIJCAU
_audit_creation_date 2002-05-23
_audit_creation_method CSD-ConQuest-V1
_database_code_CSD XIJCAU
_database_code_depnum_ccdc_archive 'CCDC 163235'
_chemical_formula_sum 'C48 H108 In4 Se4 Si4'
_chemical_formula_moiety
;
C48 H108 In4 Se4 Si4
;
_journal_coden_Cambridge 1290
_journal_year 2002
_journal_page_first 341
_journal_name_full 'Eur.J.Inorg.Chem. '
loop_
_publ_author_name
"N.Wiberg"
"T.Blank"
"K.Amelunxen"
"H.Noth"
"H.Schnokel"
"E.Baum"
"A.Purath"
"D.Fenske"
_chemical_name_systematic
;
tetrakis(\m~3~-Selenido)-tetrakis(tris(t-butyl)silyl)-tetra-indium
;
_cell_volume  13313.738
_exptl_crystal_colour 'yellow'
_exptl_crystal_density_diffrn 1.565
_exptl_special_details
;
air- and moisture-sensitive

;
_diffrn_ambient_temperature 190
#These two values have been output from a single CSD field.
_refine_ls_R_factor_gt 0.0496
_refine_ls_wR_factor_gt 0.0496
_symmetry_cell_setting cubic
_symmetry_space_group_name_H-M 'P a -3'
_symmetry_Int_Tables_number 205
loop_
_symmetry_equiv_pos_site_id
_symmetry_equiv_pos_as_xyz
1 x,y,z
2 y,z,x
3 z,x,y
4 1/2+x,y,1/2-z
5 1/2-x,1/2+y,z
6 x,1/2-y,1/2+z
7 1/2+y,z,1/2-x
8 1/2-y,1/2+z,x
9 y,1/2-z,1/2+x
10 z,1/2-x,1/2+y
11 1/2+z,x,1/2-y
12 1/2-z,1/2+x,y
13 -x,-y,-z
14 -y,-z,-x
15 -z,-x,-y
16 -1/2-x,-y,-1/2+z
17 -1/2+x,-1/2-y,-z
18 -x,-1/2+y,-1/2-z
19 -1/2-y,-z,-1/2+x
20 -1/2+y,-1/2-z,-x
21 -y,-1/2+z,-1/2-x
22 -z,-1/2+x,-1/2-y
23 -1/2-z,-x,-1/2+y
24 -1/2+z,-1/2-x,-y
_cell_length_a 23.701(4)
_cell_length_b 23.701(4)
_cell_length_c 23.701(4)
_cell_angle_alpha 90
_cell_angle_beta 90
_cell_angle_gamma 90
_cell_formula_units_Z 8
loop_
_atom_type_symbol
_atom_type_radius_bond
C 0.68
H 0.23
In 1.49
Se 1.22
Si 1.20
loop_
_atom_site_label
_atom_site_type_symbol
_atom_site_fract_x
_atom_site_fract_y
_atom_site_fract_z
In1 In 0.924549(16) 0.182988(17) 0.577830(17)
In2 In 0.817945(15) 0.182055(15) 0.682055(15)
Se1 Se 0.81196(2) 0.19043(2) 0.56970(2)
Se2 Se 0.92963(2) 0.07037(2) 0.57037(2)
Si1 Si 0.98693(6) 0.24691(6) 0.51588(6)
Si2 Si 0.75546(6) 0.24454(6) 0.74454(6)
C1 C 0.9488(2) 0.3192(2) 0.5120(2)
C2 C 0.9884(3) 0.3669(2) 0.4924(3)
H1 H 0.96750 0.40260 0.49110
H2 H 1.00310 0.35820 0.45470
H3 H 1.01990 0.37030 0.51880
C3 C 0.9254(3) 0.3352(3) 0.5702(3)
H4 H 0.90620 0.37180 0.56790
H5 H 0.95650 0.33770 0.59720
H6 H 0.89860 0.30640 0.58280
C4 C 0.8977(3) 0.3166(3) 0.4720(3)
H7 H 0.87910 0.35350 0.47090
H8 H 0.87100 0.28820 0.48570
H9 H 0.91060 0.30650 0.43410
C5 C 1.0597(2) 0.2518(3) 0.5534(3)
C6 C 1.0571(3) 0.2918(3) 0.6044(3)
H10 H 1.09410 0.29300 0.62260
H11 H 1.02890 0.27810 0.63140
H12 H 1.04670 0.32970 0.59170
C7 C 1.1070(2) 0.2717(3) 0.5136(3)
H13 H 1.14270 0.27330 0.53420
H14 H 1.09770 0.30930 0.49910
H15 H 1.11060 0.24530 0.48210
C8 C 1.0759(3) 0.1943(3) 0.5772(3)
H16 H 1.11250 0.19700 0.59620
H17 H 1.07850 0.16680 0.54650
H18 H 1.04720 0.18200 0.60430
C9 C 0.9906(3) 0.2092(3) 0.4431(2)
C10 C 1.0115(3) 0.2479(3) 0.3959(3)
H19 H 1.01260 0.22700 0.36040
H20 H 1.04950 0.26150 0.40490
H21 H 0.98580 0.28010 0.39210
C11 C 1.0301(3) 0.1575(3) 0.4469(3)
H22 H 1.03170 0.13870 0.41030
H23 H 1.01550 0.13130 0.47530
H24 H 1.06800 0.16980 0.45770
C12 C 0.9326(3) 0.1855(3) 0.4269(3)
H25 H 0.93530 0.16660 0.39020
H26 H 0.90510 0.21630 0.42450
H27 H 0.92030 0.15830 0.45550
C13 C 0.7924(2) 0.3180(2) 0.7460(2)
C14 C 0.8149(3) 0.3334(3) 0.6865(3)
H28 H 0.83350 0.37020 0.68780
H29 H 0.78340 0.33480 0.65990
H30 H 0.84220 0.30470 0.67420
C15 C 0.8443(3) 0.3171(3) 0.7855(3)
H31 H 0.86220 0.35430 0.78540
H32 H 0.87130 0.28880 0.77210
H33 H 0.83210 0.30760 0.82380
C16 C 0.7526(3) 0.3648(2) 0.7664(3)
H34 H 0.77270 0.40080 0.76650
H35 H 0.73960 0.35610 0.80460
H36 H 0.72010 0.36730 0.74110
In1T In 0.817012(16) 0.077830(17) 0.575451(17)
Se1T Se 0.80957(2) 0.06970(2) 0.68804(2)
In1V In 0.922170(16) 0.075451(17) 0.682988(17)
Se1V Se 0.93030(2) 0.18804(2) 0.69043(2)
Si1V Si 0.98412(6) 0.01307(6) 0.74691(6)
C1V C 0.9880(2) 0.0512(2) 0.8192(2)
C2V C 1.0076(3) 0.0116(2) 0.8669(3)
H1V H 1.00890 0.03250 0.90260
H2V H 1.04530 -0.00310 0.85820
H3V H 0.98120 -0.01990 0.87030
C3V C 0.9298(3) 0.0746(3) 0.8352(3)
H4V H 0.93210 0.09380 0.87180
H5V H 0.90280 0.04350 0.83770
H6V H 0.91720 0.10140 0.80640
C4V C 1.0280(3) 0.1023(3) 0.8166(3)
H7V H 1.02910 0.12090 0.85350
H8V H 1.01430 0.12900 0.78820
H9V H 1.06590 0.08940 0.80650
C5V C 0.9466(2) -0.0597(3) 0.7518(3)
C6V C 0.8956(3) -0.0571(3) 0.7918(3)
H10V H 0.87740 -0.09410 0.79300
H11V H 0.86860 -0.02890 0.77810
H12V H 0.90830 -0.04670 0.82970
C7V C 0.9864(2) -0.1070(3) 0.7717(3)
H13V H 0.96580 -0.14270 0.77330
H14V H 1.00090 -0.09770 0.80930
H15V H 1.01790 -0.11060 0.74530
C8V C 0.9228(3) -0.0759(3) 0.6943(3)
H16V H 0.90380 -0.11250 0.69700
H17V H 0.95350 -0.07850 0.66680
H18V H 0.89570 -0.04720 0.68200
C9V C 1.0569(3) 0.0094(3) 0.7092(2)
C10V C 1.1041(3) -0.0115(3) 0.7479(3)
H19V H 1.13960 -0.01260 0.72700
H20V H 1.09510 -0.04950 0.76150
H21V H 1.10790 0.01420 0.78010
C11V C 1.0531(3) -0.0301(3) 0.6575(3)
H22V H 1.08970 -0.03170 0.63870
H23V H 1.02470 -0.01550 0.63130
H24V H 1.04230 -0.06800 0.66980
C12V C 1.0731(3) 0.0674(3) 0.6855(3)
H25V H 1.10980 0.06470 0.66660
H26V H 1.07550 0.09490 0.71630
H27V H 1.04450 0.07970 0.65830
Si1T Si 0.75309(6) 0.01588(6) 0.51307(6)
C1T C 0.6808(2) 0.0120(2) 0.5512(2)
C2T C 0.6331(3) -0.0076(2) 0.5116(3)
H1T H 0.59740 -0.00890 0.53250
H2T H 0.64180 -0.04530 0.49690
H3T H 0.62970 0.01880 0.48010
C3T C 0.6648(3) 0.0702(3) 0.5746(3)
H4T H 0.62820 0.06790 0.59380
H5T H 0.66230 0.09720 0.54350
H6T H 0.69360 0.08280 0.60140
C4T C 0.6834(3) -0.0280(3) 0.6023(3)
H7T H 0.64650 -0.02910 0.62090
H8T H 0.71180 -0.01430 0.62900
H9T H 0.69350 -0.06590 0.58940
C5T C 0.7482(2) 0.0534(3) 0.4403(3)
C6T C 0.7082(3) 0.1044(3) 0.4429(3)
H10T H 0.70700 0.12260 0.40590
H11T H 0.72190 0.13140 0.47110
H12T H 0.67030 0.09170 0.45330
C7T C 0.7283(2) 0.0136(3) 0.3930(3)
H13T H 0.72670 0.03420 0.35730
H14T H 0.69070 -0.00090 0.40230
H15T H 0.75470 -0.01790 0.38940
C8T C 0.8057(3) 0.0772(3) 0.4241(3)
H16T H 0.80300 0.09620 0.38750
H17T H 0.83320 0.04650 0.42150
H18T H 0.81800 0.10430 0.45280
C9T C 0.7908(3) -0.0569(3) 0.5094(2)
C10T C 0.7521(3) -0.1041(3) 0.4885(3)
H19T H 0.77300 -0.13960 0.48740
H20T H 0.73850 -0.09510 0.45050
H21T H 0.71990 -0.10790 0.51420
C11T C 0.8425(3) -0.0531(3) 0.4699(3)
H22T H 0.86130 -0.08970 0.46830
H23T H 0.86870 -0.02470 0.48450
H24T H 0.83020 -0.04230 0.43200
C12T C 0.8145(3) -0.0731(3) 0.5674(3)
H25T H 0.83340 -0.10980 0.56470
H26T H 0.78370 -0.07550 0.59490
H27T H 0.84170 -0.04450 0.57970
C13T C 0.6820(2) 0.2460(2) 0.7076(2)
C14T C 0.6666(3) 0.1865(3) 0.6851(3)
H28T H 0.62980 0.18780 0.66650
H29T H 0.66520 0.15990 0.71660
H30T H 0.69530 0.17420 0.65780
C15T C 0.6829(3) 0.2855(3) 0.6557(3)
H31T H 0.64570 0.28540 0.63780
H32T H 0.71120 0.27210 0.62870
H33T H 0.69240 0.32380 0.66790
C16T C 0.6352(3) 0.2664(2) 0.7474(3)
H34T H 0.59920 0.26650 0.72730
H35T H 0.64390 0.30460 0.76040
H36T H 0.63270 0.24110 0.77990
C13V C 0.7540(2) 0.2076(2) 0.8180(2)
C14V C 0.8135(3) 0.1851(3) 0.8334(3)
H28V H 0.81220 0.16650 0.87020
H29V H 0.84010 0.21660 0.83480
H30V H 0.82580 0.15780 0.80470
C15V C 0.7145(3) 0.1557(3) 0.8171(3)
H31V H 0.71460 0.13780 0.85430
H32V H 0.72790 0.12870 0.78880
H33V H 0.67620 0.16790 0.80760
C16V C 0.7336(3) 0.2474(2) 0.8648(3)
H34V H 0.73350 0.22730 0.90080
H35V H 0.69540 0.26040 0.85610
H36V H 0.75890 0.27990 0.86730
#END

data_CSD_CIF_XITNAR
_audit_creation_date 2014-01-17
_audit_creation_method CSD-ConQuest-V1
_database_code_CSD XITNAR
_database_code_depnum_ccdc_archive 'CCDC 974963'
_chemical_formula_sum 'C13 H18 Fe1 I1 P1'
_chemical_formula_moiety
;
C13 H18 Fe1 P1 1+,I1 1-
;
_journal_coden_Cambridge 222
_journal_volume 43
_journal_year 2014
_journal_page_first 3750
_journal_name_full 'Dalton Trans. '
loop_
_publ_author_name
"P.Kubler"
"J.Sundermeyer"
_chemical_name_systematic
;
Trimethyl(ferrocenyl)phosphonium iodide
;
_cell_volume   8440.818
_exptl_crystal_colour 'yellow'
_exptl_crystal_density_diffrn 1.832
_exptl_special_details
;
Air-sensitive
A bad GooF-value (Goodness of Fit) has been found, which is attributable to 
the relatively weak dataset
;
_exptl_crystal_description 'block'
_exptl_crystal_preparation 'Chloroform'
_diffrn_ambient_temperature 100
#These two values have been output from a single CSD field.
_refine_ls_R_factor_gt 0.0297
_refine_ls_wR_factor_gt 0.0297
_symmetry_cell_setting cubic
_symmetry_space_group_name_H-M 'P a -3'
_symmetry_Int_Tables_number 205
loop_
_symmetry_equiv_pos_site_id
_symmetry_equiv_pos_as_xyz
1 x,y,z
2 1/2-x,-y,1/2+z
3 1/2+x,1/2-y,-z
4 -x,1/2+y,1/2-z
5 z,x,y
6 y,z,x
7 1/2-z,-x,1/2+y
8 -y,1/2+z,1/2-x
9 1/2+z,1/2-x,-y
10 1/2-y,-z,1/2+x
11 -z,1/2+x,1/2-y
12 1/2+y,1/2-z,-x
13 -x,-y,-z
14 -1/2+x,y,-1/2-z
15 -1/2-x,-1/2+y,z
16 x,-1/2-y,-1/2+z
17 -z,-x,-y
18 -y,-z,-x
19 -1/2+z,x,-1/2-y
20 y,-1/2-z,-1/2+x
21 -1/2-z,-1/2+x,y
22 -1/2+y,z,-1/2-x
23 z,-1/2-x,-1/2+y
24 -1/2-y,-1/2+z,x
_cell_length_a 20.3608(13)
_cell_length_b 20.3608(13)
_cell_length_c 20.3608(13)
_cell_angle_alpha 90
_cell_angle_beta 90
_cell_angle_gamma 90
_cell_formula_units_Z 24
loop_
_atom_type_symbol
_atom_type_radius_bond
C 0.68
H 0.23
Fe 1.52
I 1.40
P 1.05
loop_
_atom_site_label
_atom_site_type_symbol
_atom_site_fract_x
_atom_site_fract_y
_atom_site_fract_z
C1 C 0.5313(3) 0.9162(3) 0.7764(3)
C2 C 0.5849(3) 0.9111(3) 0.8204(3)
H1 H 0.60150 0.94560 0.84700
C3 C 0.6098(3) 0.8459(3) 0.8184(3)
H2 H 0.64550 0.82910 0.84330
C4 C 0.5711(3) 0.8104(3) 0.7722(3)
H3 H 0.57680 0.76550 0.76090
C5 C 0.5227(3) 0.8532(2) 0.7454(3)
H4 H 0.49080 0.84230 0.71310
C6 C 0.4065(3) 0.9752(3) 0.8115(3)
H5 H 0.38270 0.93640 0.79580
H6 H 0.37880 1.01430 0.80610
H7 H 0.41740 0.96960 0.85810
C7 C 0.5208(3) 1.0564(3) 0.7946(3)
H8 H 0.53100 1.05120 0.84130
H9 H 0.49250 1.09480 0.78850
H10 H 0.56170 1.06250 0.76990
C8 C 0.4569(3) 0.9934(3) 0.6824(2)
H11 H 0.49630 1.00040 0.65560
H12 H 0.42720 1.03100 0.67750
H13 H 0.43450 0.95330 0.66780
C9 C 0.6249(3) 0.9187(3) 0.6316(3)
H14 H 0.59050 0.92910 0.60180
C10 C 0.6540(3) 0.8556(3) 0.6423(3)
H15 H 0.64220 0.81630 0.62010
C11 C 0.7029(3) 0.8610(3) 0.6910(3)
H16 H 0.72920 0.82620 0.70750
C12 C 0.7061(3) 0.9264(3) 0.7105(3)
H17 H 0.73530 0.94400 0.74230
C13 C 0.6580(3) 0.9627(3) 0.6748(3)
H18 H 0.64940 1.00840 0.67910
P1 P 0.47970(7) 0.98503(7) 0.76563(6)
Fe1 Fe 0.61419(4) 0.88946(4) 0.72786(4)
I1 I 0.50000 0.50000 1.00000
I2 I 0.50000 1.00000 1.00000
I3 I 0.65851(2) 0.65851(2) 0.65851(2)
I4 I 0.83626(2) 0.83626(2) 0.83626(2)
#END

data_CSD_CIF_XOGQAL
_audit_creation_date 2002-09-13
_audit_creation_method CSD-ConQuest-V1
_database_code_CSD XOGQAL
_database_code_depnum_ccdc_archive 'CCDC 174050'
_chemical_formula_sum 'C6 H18 Br2 O1 Sb2'
_chemical_formula_moiety
;
C6 H18 Br2 O1 Sb2
;
_journal_coden_Cambridge 36
_journal_volume 648
_journal_year 2002
_journal_page_first 33
_journal_name_full 'J.Organomet.Chem. '
loop_
_publ_author_name
"L.Balazs"
"H.J.Breunig"
"I.Ghesner"
"E.Lork"
_chemical_name_systematic
;
(\m~2~-Oxo)-dibromo-hexamethyl-di-antimony(v)
;
_cell_volume   1415.870
_exptl_crystal_colour 'colorless'
_exptl_crystal_density_diffrn 2.39
_exptl_crystal_description 'block'
_exptl_crystal_preparation 'methanol'
_diffrn_ambient_temperature 173
#These two values have been output from a single CSD field.
_refine_ls_R_factor_gt 0.0209
_refine_ls_wR_factor_gt 0.0209
_symmetry_cell_setting cubic
_symmetry_space_group_name_H-M 'P a -3'
_symmetry_Int_Tables_number 205
loop_
_symmetry_equiv_pos_site_id
_symmetry_equiv_pos_as_xyz
1 x,y,z
2 z,x,y
3 y,z,x
4 1/2+x,y,1/2-z
5 x,1/2-y,1/2+z
6 1/2-x,1/2+y,z
7 1/2-z,1/2+x,y
8 1/2+z,x,1/2-y
9 z,1/2-x,1/2+y
10 y,1/2-z,1/2+x
11 1/2-y,1/2+z,x
12 1/2+y,z,1/2-x
13 -x,-y,-z
14 -z,-x,-y
15 -y,-z,-x
16 -1/2-x,-y,-1/2+z
17 -x,-1/2+y,-1/2-z
18 -1/2+x,-1/2-y,-z
19 -1/2+z,-1/2-x,-y
20 -1/2-z,-x,-1/2+y
21 -z,-1/2+x,-1/2-y
22 -y,-1/2+z,-1/2-x
23 -1/2+y,-1/2-z,-x
24 -1/2-y,-z,-1/2+x
_cell_length_a 11.229(1)
_cell_length_b 11.229(1)
_cell_length_c 11.229(1)
_cell_angle_alpha 90
_cell_angle_beta 90
_cell_angle_gamma 90
_cell_formula_units_Z 4
loop_
_atom_type_symbol
_atom_type_radius_bond
C 0.68
H 0.23
Br 1.21
O 0.68
Sb 1.46
loop_
_atom_site_label
_atom_site_type_symbol
_atom_site_fract_x
_atom_site_fract_y
_atom_site_fract_z
Sb1 Sb 0.09869(2) 0.40131(2) 0.59869(2)
Br1 Br 0.24492(4) 0.25508(4) 0.74492(4)
C1 C 0.0339(4) 0.4738(4) 0.7584(4)
H1 H -0.02640 0.53430 0.74060
H2 H 0.09970 0.51050 0.80250
H3 H -0.00180 0.41050 0.80680
O1 O 0.00000 0.50000 0.50000
C1R C 0.2584(4) 0.4661(4) 0.5262(4)
H1R H 0.24060 0.52640 0.46570
H2R H 0.30250 0.40030 0.48950
H3R H 0.30680 0.50180 0.58950
C1W C 0.0262(4) 0.2416(4) 0.5339(4)
H1W H -0.03430 0.25940 0.47360
H2W H -0.01050 0.19750 0.59970
H3W H 0.08950 0.19320 0.49820
Sb1K Sb -0.09869(2) 0.59869(2) 0.40131(2)
Br1K Br -0.24492(4) 0.74492(4) 0.25508(4)
C1K C -0.0262(4) 0.7584(4) 0.4661(4)
H1K H 0.03430 0.74060 0.52640
H2K H 0.01050 0.80250 0.40030
H3K H -0.08950 0.80680 0.50180
C1L C -0.0339(4) 0.5262(4) 0.2416(4)
H1L H 0.02640 0.46570 0.25940
H2L H -0.09970 0.48950 0.19750
H3L H 0.00180 0.58950 0.19320
C1F C -0.2584(4) 0.5339(4) 0.4738(4)
H1F H -0.24060 0.47360 0.53430
H2F H -0.30250 0.59970 0.51050
H3F H -0.30680 0.49820 0.41050
#END

data_CSD_CIF_XUHXON
_audit_creation_date 2002-12-18
_audit_creation_method CSD-ConQuest-V1
_database_code_CSD XUHXON
_database_code_depnum_ccdc_archive 'CCDC 178940'
_chemical_formula_sum 'C21 H28 B1 N6 Tl1'
_chemical_formula_moiety
;
C21 H28 B1 N6 Tl1
;
_journal_coden_Cambridge 1290
_journal_year 2002
_journal_page_first 2335
_journal_name_full 'Eur.J.Inorg.Chem. '
loop_
_publ_author_name
"A.L.Rheingold"
"G.P.A.Yap"
"L.N.Zakharov"
"S.Trofimenko"
_chemical_name_systematic
;
(Hydrogen tris(3-cyclobutylpyrazolyl)borato)-thallium
;
_chemical_melting_point 405.15
_cell_volume   4572.312
_exptl_crystal_colour 'colorless'
_exptl_crystal_density_diffrn 1.684
_exptl_special_details
;
Melting point range 405.15-407.15K

;
_exptl_crystal_description 'block'
_diffrn_ambient_temperature 173
#These two values have been output from a single CSD field.
_refine_ls_R_factor_gt 0.0232
_refine_ls_wR_factor_gt 0.0232
_symmetry_cell_setting cubic
_symmetry_space_group_name_H-M 'P a -3'
_symmetry_Int_Tables_number 205
loop_
_symmetry_equiv_pos_site_id
_symmetry_equiv_pos_as_xyz
1 x,y,z
2 z,x,y
3 y,z,x
4 1/2+x,y,1/2-z
5 x,1/2-y,1/2+z
6 1/2-x,1/2+y,z
7 1/2-z,1/2+x,y
8 1/2+z,x,1/2-y
9 z,1/2-x,1/2+y
10 y,1/2-z,1/2+x
11 1/2-y,1/2+z,x
12 1/2+y,z,1/2-x
13 -x,-y,-z
14 -z,-x,-y
15 -y,-z,-x
16 -1/2-x,-y,-1/2+z
17 -x,-1/2+y,-1/2-z
18 -1/2+x,-1/2-y,-z
19 -1/2+z,-1/2-x,-y
20 -1/2-z,-x,-1/2+y
21 -z,-1/2+x,-1/2-y
22 -y,-1/2+z,-1/2-x
23 -1/2+y,-1/2-z,-x
24 -1/2-y,-z,-1/2+x
_cell_length_a 16.5976(1)
_cell_length_b 16.5976(1)
_cell_length_c 16.5976(1)
_cell_angle_alpha 90
_cell_angle_beta 90
_cell_angle_gamma 90
_cell_formula_units_Z 8
loop_
_atom_type_symbol
_atom_type_radius_bond
C 0.68
H 0.23
B 0.83
N 0.68
Tl 1.55
loop_
_atom_site_label
_atom_site_type_symbol
_atom_site_fract_x
_atom_site_fract_y
_atom_site_fract_z
Tl1 Tl 0.715199(5) -0.215199(5) 0.215199(5)
N1 N 0.84800(13) -0.19588(13) 0.29142(13)
N2 N 0.88563(12) -0.26018(13) 0.32721(13)
C1 C 0.9615(2) -0.2392(2) 0.3480(2)
H1 H 0.9995(2) -0.2733(2) 0.3740(2)
C2 C 0.9749(2) -0.1604(2) 0.3255(2)
H2 H 1.0228(2) -0.1300(2) 0.3323(2)
C3 C 0.90180(15) -0.1348(2) 0.2902(2)
C4 C 0.8806(2) -0.0544(2) 0.2560(2)
H3 H 0.8231(2) -0.0542(2) 0.2382(2)
C5 C 0.9347(2) -0.0171(2) 0.1893(2)
H4 H 0.9118(2) -0.0214(2) 0.1344(2)
H5 H 0.9912(2) -0.0364(2) 0.1905(2)
C6 C 0.9225(2) 0.0668(2) 0.2290(2)
H6 H 0.9726(2) 0.0989(2) 0.2337(2)
H7 H 0.8785(2) 0.0989(2) 0.2048(2)
C7 C 0.8986(2) 0.0227(2) 0.3069(2)
H8 H 0.8505(2) 0.0457(2) 0.3337(2)
H9 H 0.9436(2) 0.0161(2) 0.3455(2)
B1 B 0.8418(2) -0.3418(2) 0.3418(2)
H10 H 0.8766(2) -0.3766(2) 0.3766(2)
N2W N 0.76018(12) -0.32721(13) 0.38563(13)
N1W N 0.69588(13) -0.29142(13) 0.34800(13)
N1R N 0.79142(13) -0.34800(13) 0.19588(13)
N2R N 0.82721(12) -0.38563(13) 0.26018(13)
C1R C 0.8480(2) -0.4615(2) 0.2392(2)
H1R H 0.8740(2) -0.4995(2) 0.2733(2)
C2R C 0.8255(2) -0.4749(2) 0.1604(2)
H2R H 0.8323(2) -0.5228(2) 0.1300(2)
C3R C 0.79020(15) -0.4018(2) 0.1348(2)
C4R C 0.7560(2) -0.3806(2) 0.0544(2)
H3R H 0.7382(2) -0.3231(2) 0.0542(2)
C5R C 0.6893(2) -0.4347(2) 0.0171(2)
H4R H 0.6344(2) -0.4118(2) 0.0214(2)
H5R H 0.6905(2) -0.4912(2) 0.0364(2)
C6R C 0.7290(2) -0.4225(2) -0.0668(2)
H6R H 0.7337(2) -0.4726(2) -0.0989(2)
H7R H 0.7048(2) -0.3785(2) -0.0989(2)
C7R C 0.8069(2) -0.3986(2) -0.0227(2)
H8R H 0.8337(2) -0.3505(2) -0.0457(2)
H9R H 0.8455(2) -0.4436(2) -0.0161(2)
C3W C 0.63480(15) -0.2902(2) 0.4018(2)
C2W C 0.6604(2) -0.3255(2) 0.4749(2)
C1W C 0.7392(2) -0.3480(2) 0.4615(2)
H1W H 0.7733(2) -0.3740(2) 0.4995(2)
H2W H 0.6300(2) -0.3323(2) 0.5228(2)
C4W C 0.5544(2) -0.2560(2) 0.3806(2)
H3W H 0.5542(2) -0.2382(2) 0.3231(2)
C5W C 0.5171(2) -0.1893(2) 0.4347(2)
H4W H 0.5214(2) -0.1344(2) 0.4118(2)
H5W H 0.5364(2) -0.1905(2) 0.4912(2)
C6W C 0.4332(2) -0.2290(2) 0.4225(2)
H6W H 0.4011(2) -0.2337(2) 0.4726(2)
H7W H 0.4011(2) -0.2048(2) 0.3785(2)
C7W C 0.4773(2) -0.3069(2) 0.3986(2)
H8W H 0.4543(2) -0.3337(2) 0.3505(2)
H9W H 0.4839(2) -0.3455(2) 0.4436(2)
#END

data_CSD_CIF_YEYXAE
_audit_creation_date 2018-06-12
_audit_creation_method CSD-ConQuest-V1
_database_code_CSD YEYXAE
_database_code_depnum_ccdc_archive 'CCDC 1828925'
_chemical_formula_sum 'C6 H20 Br6 N2 Te1'
_chemical_formula_moiety
;
2(C3 H10 N1 1+),Br6 Te1 2-
;
_journal_coden_Cambridge 1290
_journal_year 2018
_journal_page_first 3264
_journal_name_full 'Eur.J.Inorg.Chem. '
loop_
_publ_author_name
"A.N.Usoltsev"
"S.A.Adonin"
"P.A.Abramov"
"A.S.Novikov"
"V.R.Shayapov"
"P.E.Plyusnin"
"I.V.Korolkov"
"M.N.Sokolov"
"V.P.Fedin"
_chemical_name_systematic
;
bis(trimethylammonium) hexabromo-tellurium(iv)
;
_cell_volume   1953.313
_exptl_crystal_colour 'yellow'
_exptl_crystal_density_diffrn 2.473
_exptl_crystal_description 'block'
_diffrn_ambient_temperature 130
#These two values have been output from a single CSD field.
_refine_ls_R_factor_gt 0.0209
_refine_ls_wR_factor_gt 0.0209
_symmetry_cell_setting cubic
_symmetry_space_group_name_H-M 'P a -3'
_symmetry_Int_Tables_number 205
loop_
_symmetry_equiv_pos_site_id
_symmetry_equiv_pos_as_xyz
1 x,y,z
2 1/2-x,-y,1/2+z
3 -x,1/2+y,1/2-z
4 1/2+x,1/2-y,-z
5 z,x,y
6 1/2+z,1/2-x,-y
7 1/2-z,-x,1/2+y
8 -z,1/2+x,1/2-y
9 y,z,x
10 -y,1/2+z,1/2-x
11 1/2+y,1/2-z,-x
12 1/2-y,-z,1/2+x
13 -x,-y,-z
14 -1/2+x,y,-1/2-z
15 x,-1/2-y,-1/2+z
16 -1/2-x,-1/2+y,z
17 -z,-x,-y
18 -1/2-z,-1/2+x,y
19 -1/2+z,x,-1/2-y
20 z,-1/2-x,-1/2+y
21 -y,-z,-x
22 y,-1/2-z,-1/2+x
23 -1/2-y,-1/2+z,x
24 -1/2+y,z,-1/2-x
_cell_length_a 12.5004(5)
_cell_length_b 12.5004(5)
_cell_length_c 12.5004(5)
_cell_angle_alpha 90
_cell_angle_beta 90
_cell_angle_gamma 90
_cell_formula_units_Z 4
loop_
_atom_type_symbol
_atom_type_radius_bond
C 0.68
H 0.23
Br 1.21
N 0.68
Te 1.47
loop_
_atom_site_label
_atom_site_type_symbol
_atom_site_fract_x
_atom_site_fract_y
_atom_site_fract_z
C1 C 0.1896(2) 0.3491(2) 0.2830(2)
H1 H 0.20061 0.42125 0.25440
H2 H 0.15477 0.35386 0.35313
H3 H 0.14408 0.30821 0.23401
N1 N 0.29454(18) 0.29454(18) 0.29454(18)
H4 H 0.335(2) 0.335(2) 0.335(2)
Br1 Br 0.28780(2) 0.46745(2) 0.52639(2)
Te1 Te 0.50000 0.50000 0.50000
C1D C 0.2830(2) 0.1896(2) 0.3491(2)
H1D H 0.25440 0.20061 0.42125
H2D H 0.35313 0.15477 0.35386
H3D H 0.23401 0.14408 0.30821
C1H C 0.3491(2) 0.2830(2) 0.1896(2)
H1H H 0.42125 0.25440 0.20061
H2H H 0.35386 0.35313 0.15477
H3H H 0.30821 0.23401 0.14408
Br1D Br 0.52639(2) 0.28780(2) 0.46745(2)
Br1H Br 0.46745(2) 0.52639(2) 0.28780(2)
Br1L Br 0.71220(2) 0.53255(2) 0.47361(2)
Br1P Br 0.47361(2) 0.71220(2) 0.53255(2)
Br1T Br 0.53255(2) 0.47361(2) 0.71220(2)
#END

data_CSD_CIF_YOCGAA
_audit_creation_date 2014-04-03
_audit_creation_method CSD-ConQuest-V1
_database_code_CSD YOCGAA
_database_code_depnum_ccdc_archive 'CCDC 902948'
_chemical_formula_sum 'C24 H54 Mg1 O22 U2'
_chemical_formula_moiety
;
H12 Mg1 O6 2+,2(C12 H21 O8 U1 1-)
;
_journal_coden_Cambridge 41
_journal_volume 59
_journal_year 2014
_journal_page_first 235
_journal_name_full 'Kristallografiya(Russ.)(Crystallogr.Rep.) '
loop_
_publ_author_name
"A.V.Savchenkov"
"A.V.Vologzhanina"
"V.N.Serezhkin"
"D.V.Pushkin"
"L.B.Serezhkina"
_chemical_name_systematic
;
Hexa-aqua-magnesium(ii) bis(tris(butanoato)-dioxo-uranium)
;
_cell_volume   3865.088
_exptl_crystal_colour 'yellow'
_exptl_crystal_density_diffrn 2.054
_exptl_crystal_description 'prism'
_diffrn_ambient_temperature 100
#These two values have been output from a single CSD field.
_refine_ls_R_factor_gt 0.0173
_refine_ls_wR_factor_gt 0.0173
_symmetry_cell_setting cubic
_symmetry_space_group_name_H-M 'P a -3'
_symmetry_Int_Tables_number 205
loop_
_symmetry_equiv_pos_site_id
_symmetry_equiv_pos_as_xyz
1 x,y,z
2 1/2-x,-y,1/2+z
3 -x,1/2+y,1/2-z
4 1/2+x,1/2-y,-z
5 z,x,y
6 1/2+z,1/2-x,-y
7 1/2-z,-x,1/2+y
8 -z,1/2+x,1/2-y
9 y,z,x
10 -y,1/2+z,1/2-x
11 1/2+y,1/2-z,-x
12 1/2-y,-z,1/2+x
13 -x,-y,-z
14 -1/2+x,y,-1/2-z
15 x,-1/2-y,-1/2+z
16 -1/2-x,-1/2+y,z
17 -z,-x,-y
18 -1/2-z,-1/2+x,y
19 -1/2+z,x,-1/2-y
20 z,-1/2-x,-1/2+y
21 -y,-z,-x
22 y,-1/2-z,-1/2+x
23 -1/2-y,-1/2+z,x
24 -1/2+y,z,-1/2-x
_cell_length_a 15.6935(6)
_cell_length_b 15.6935(6)
_cell_length_c 15.6935(6)
_cell_angle_alpha 90
_cell_angle_beta 90
_cell_angle_gamma 90
_cell_formula_units_Z 4
loop_
_atom_type_symbol
_atom_type_radius_bond
C 0.68
H 0.23
Mg 1.41
O 0.68
U 1.96
loop_
_atom_site_label
_atom_site_type_symbol
_atom_site_fract_x
_atom_site_fract_y
_atom_site_fract_z
U1 U 0.855326(5) 0.355326(5) 0.144674(5)
O1 O 0.79028(10) 0.29028(10) 0.20972(10)
O2 O 0.91998(10) 0.41998(10) 0.08002(10)
O3 O 0.84361(10) 0.24378(11) 0.03266(11)
O4 O 0.75077(11) 0.34615(11) 0.02664(11)
C1 C 0.77890(15) 0.27684(15) -0.00257(14)
C2 C 0.73707(17) 0.23623(16) -0.07860(16)
H1 H 0.76070 0.26260 -0.13080
H2 H 0.67540 0.24950 -0.07690
C3 C 0.74747(17) 0.14026(16) -0.08553(16)
H3 H 0.80890 0.12610 -0.08400
H4 H 0.72470 0.12110 -0.14110
C4 C 0.70219(19) 0.09205(18) -0.01456(18)
H5 H 0.71190 0.03080 -0.02160
H6 H 0.64090 0.10390 -0.01710
H7 H 0.72460 0.11050 0.04070
Mg1 Mg 1.00000 0.00000 0.00000
O5 O 0.8797(1) -0.03997(11) 0.03172(11)
H8 H 0.85800 -0.08620 0.01370
H9 H 0.85430 -0.02860 0.07820
O3G O 0.96734(10) 0.34361(11) 0.25622(11)
O4G O 0.97336(11) 0.25077(11) 0.15385(11)
C1G C 1.00257(15) 0.27890(15) 0.22316(14)
C2G C 1.07860(17) 0.23707(16) 0.26377(16)
H1G H 1.13080 0.26070 0.23740
H2G H 1.07690 0.17540 0.25050
C3G C 1.08553(17) 0.24747(16) 0.35974(16)
H3G H 1.08400 0.30890 0.37390
H4G H 1.14110 0.22470 0.37890
C4G C 1.01456(19) 0.20219(18) 0.40795(18)
H5G H 1.02160 0.21190 0.46920
H6G H 1.01710 0.14090 0.39610
H7G H 0.95930 0.22460 0.38950
O3J O 0.74378(10) 0.46734(11) 0.15639(11)
O4J O 0.84615(11) 0.47336(11) 0.24923(11)
C1J C 0.77684(15) 0.50257(15) 0.22110(14)
C2J C 0.73623(17) 0.57860(16) 0.26293(16)
H1J H 0.76260 0.63080 0.23930
H2J H 0.74950 0.57690 0.32460
C3J C 0.64026(17) 0.58553(16) 0.25253(16)
H3J H 0.62610 0.58400 0.19110
H4J H 0.62110 0.64110 0.27530
C4J C 0.59205(19) 0.51456(18) 0.29781(18)
H5J H 0.53080 0.52160 0.28810
H6J H 0.60390 0.51710 0.35910
H7J H 0.61050 0.45930 0.27540
O5D O 1.03172(10) -0.12030(11) -0.03997(11)
H8D H 1.01370 -0.14200 -0.08620
H9D H 1.07820 -0.14570 -0.02860
O5H O 0.96003(10) 0.03172(11) -0.12030(11)
H8H H 0.91380 0.01370 -0.14200
H9H H 0.97140 0.07820 -0.14570
O5L O 1.1203(1) 0.03997(11) -0.03172(11)
H8L H 1.14200 0.08620 -0.01370
H9L H 1.14570 0.02860 -0.07820
O5P O 0.96828(10) 0.12030(11) 0.03997(11)
H8P H 0.98630 0.14200 0.08620
H9P H 0.92180 0.14570 0.02860
O5T O 1.03997(10) -0.03172(11) 0.12030(11)
H8T H 1.08620 -0.01370 0.14200
H9T H 1.02860 -0.07820 0.14570
#END

data_CSD_CIF_YOKSOG
_audit_creation_date 1996-01-03
_audit_creation_method CSD-ConQuest-V1
_database_code_CSD YOKSOG
_database_code_depnum_ccdc_archive 'CCDC 1304953'
_database_code_depnum_ccdc_fiz 'CSD 58226'
_chemical_formula_sum 'C4 H12 As1 I1'
_chemical_formula_moiety
;
C4 H12 As1 1+,I1 1-
;
_journal_coden_Cambridge 29
_journal_volume 621
_journal_year 1995
_journal_page_first 143
_journal_name_full 'Z.Anorg.Allg.Chem. '
loop_
_publ_author_name
"W.Assenmacher"
"M.Jansen"
_chemical_name_systematic
;
Tetramethylarsonium iodide
;
_cell_volume   1719.374
_exptl_crystal_colour 'colorless'
_exptl_crystal_density_diffrn 2.024
_exptl_special_details
;
alpha polymorph
The complex has three phase transitions at 103, 175 and 215deg.C
;
_diffrn_ambient_temperature ?
_diffrn_special_details
;
The study was carried out at room temperature,in the range 283-303K

;
#These two values have been output from a single CSD field.
_refine_ls_R_factor_gt 0.0305
_refine_ls_wR_factor_gt 0.0305
_symmetry_cell_setting cubic
_symmetry_space_group_name_H-M 'P a 3'
_symmetry_Int_Tables_number 205
loop_
_symmetry_equiv_pos_site_id
_symmetry_equiv_pos_as_xyz
1 x,y,z
2 1/2-x,-y,1/2+z
3 1/2+x,1/2-y,-z
4 z,x,y
5 -x,1/2+y,1/2-z
6 1/2-z,-x,1/2+y
7 1/2+z,1/2-x,-y
8 -z,1/2+x,1/2-y
9 y,z,x
10 1/2+y,1/2-z,-x
11 -y,1/2+z,1/2-x
12 1/2-y,-z,1/2+x
13 -x,-y,-z
14 -1/2+x,y,-1/2-z
15 -1/2-x,-1/2+y,z
16 -z,-x,-y
17 x,-1/2-y,-1/2+z
18 -1/2+z,x,-1/2-y
19 -1/2-z,-1/2+x,y
20 z,-1/2-x,-1/2+y
21 -y,-z,-x
22 -1/2-y,-1/2+z,x
23 y,-1/2-z,-1/2+x
24 -1/2+y,z,-1/2-x
_cell_length_a 11.980(2)
_cell_length_b 11.980(2)
_cell_length_c 11.980(2)
_cell_angle_alpha 90
_cell_angle_beta 90
_cell_angle_gamma 90
_cell_formula_units_Z 8
loop_
_atom_type_symbol
_atom_type_radius_bond
C 0.68
H 0.23
As 1.21
I 1.40
loop_
_atom_site_label
_atom_site_type_symbol
_atom_site_fract_x
_atom_site_fract_y
_atom_site_fract_z
I1 I 0.6086(1) 0.6086(1) 0.6086(1)
As1 As 0.1848(1) 0.1848(1) 0.1848(1)
C1 C 0.3137(4) 0.1035(3) 0.2301(4)
C2 C 0.0924(3) 0.0924(3) 0.0924(3)
H1 H 0.3592(4) 0.1496(3) 0.2773(4)
H2 H 0.2912(4) 0.0380(3) 0.2704(4)
H3 H 0.3558(4) 0.0819(3) 0.1654(4)
H4 H 0.0690(3) 0.0279(3) 0.1339(3)
C1C C 0.2301(4) 0.3137(3) 0.1035(4)
C1H C 0.1035(4) 0.2301(3) 0.3137(4)
H4C H 0.1339(3) 0.0690(3) 0.0279(3)
H4H H 0.0279(3) 0.1339(3) 0.0690(3)
H1C H 0.2773(4) 0.3592(3) 0.1496(4)
H2C H 0.2704(4) 0.2912(3) 0.0380(4)
H3C H 0.1654(4) 0.3558(3) 0.0819(4)
H1H H 0.1496(4) 0.2773(3) 0.3592(4)
H2H H 0.0380(4) 0.2704(3) 0.2912(4)
H3H H 0.0819(4) 0.1654(3) 0.3558(4)
#END

data_CSD_CIF_YOMGUC
_audit_creation_date 1996-01-03
_audit_creation_method CSD-ConQuest-V1
_database_code_CSD YOMGUC
_database_code_depnum_ccdc_archive 'CCDC 1305102'
_chemical_formula_sum 'C15 H39 Cl1 Mo1 N4 Si3'
_chemical_formula_moiety
;
C15 H39 Cl1 Mo1 N4 Si3
;
_journal_coden_Cambridge 9
_journal_volume 34
_journal_year 1995
_journal_page_first 1576
_journal_name_full 'Inorg.Chem. '
loop_
_publ_author_name
"Zhibang Duan"
"J.G.Verkade"
_chemical_name_systematic
;
5-Chloro-N',N'',N'''-tris(trimethylsilyl)-1-aza-5-molybdatrane
;
_chemical_name_common
;
chloro-(N'-(trimethylsilyl)-N,N-bis(2-((trimethylsilyl)amino)ethyl)ethane-1,2-
diaminato)-molybdenum(iv)
;
_cell_volume   5087.561
_exptl_crystal_colour 'red'
_exptl_crystal_density_diffrn 1.281
_diffrn_ambient_temperature 213
#These two values have been output from a single CSD field.
_refine_ls_R_factor_gt 0.0272
_refine_ls_wR_factor_gt 0.0272
_symmetry_cell_setting cubic
_symmetry_space_group_name_H-M 'P a 3'
_symmetry_Int_Tables_number 205
loop_
_symmetry_equiv_pos_site_id
_symmetry_equiv_pos_as_xyz
1 x,y,z
2 1/2-x,-y,1/2+z
3 1/2+x,1/2-y,-z
4 z,x,y
5 -x,1/2+y,1/2-z
6 1/2-z,-x,1/2+y
7 1/2+z,1/2-x,-y
8 -z,1/2+x,1/2-y
9 y,z,x
10 1/2+y,1/2-z,-x
11 -y,1/2+z,1/2-x
12 1/2-y,-z,1/2+x
13 -x,-y,-z
14 -1/2+x,y,-1/2-z
15 -1/2-x,-1/2+y,z
16 -z,-x,-y
17 x,-1/2-y,-1/2+z
18 -1/2+z,x,-1/2-y
19 -1/2-z,-1/2+x,y
20 z,-1/2-x,-1/2+y
21 -y,-z,-x
22 -1/2-y,-1/2+z,x
23 y,-1/2-z,-1/2+x
24 -1/2+y,z,-1/2-x
_cell_length_a 17.199(1)
_cell_length_b 17.199(1)
_cell_length_c 17.199(1)
_cell_angle_alpha 90
_cell_angle_beta 90
_cell_angle_gamma 90
_cell_formula_units_Z 8
loop_
_atom_type_symbol
_atom_type_radius_bond
C 0.68
H 0.23
Cl 0.99
Mo 1.47
N 0.68
Si 1.20
loop_
_atom_site_label
_atom_site_type_symbol
_atom_site_fract_x
_atom_site_fract_y
_atom_site_fract_z
Mo1 Mo 0.2039(1) 0.2039(1) 0.2039(1)
Cl1 Cl 0.2844(1) 0.2844(1) 0.2844(1)
N1 N 0.1306(2) 0.1306(2) 0.1306(2)
C1 C 0.0507(2) 0.1618(2) 0.1355(3)
C2 C 0.0535(2) 0.2491(2) 0.1372(3)
N2 N 0.1147(2) 0.2753(2) 0.1913(2)
Si1 Si 0.1050(1) 0.3710(1) 0.2260(1)
C3 C 0.1810(3) 0.4351(3) 0.1843(3)
C4 C 0.0097(3) 0.4110(3) 0.1954(3)
C5 C 0.1067(3) 0.3744(3) 0.3340(3)
H1 H 0.02140 0.14500 0.09110
H2 H 0.02620 0.14310 0.18210
H3 H 0.00410 0.26890 0.15410
H4 H 0.06470 0.26820 0.08600
H5 H 0.17440 0.48690 0.20400
H6 H 0.17650 0.43560 0.12870
H7 H 0.23140 0.41590 0.19880
H8 H 0.00460 0.46330 0.21440
H9 H -0.03120 0.37950 0.21650
H10 H 0.00640 0.41100 0.13970
H11 H 0.15540 0.35420 0.35230
H12 H 0.06490 0.34360 0.35430
H13 H 0.10090 0.42720 0.35110
N2C N 0.1913(2) 0.1147(2) 0.2753(2)
N2H N 0.2753(2) 0.1913(2) 0.1147(2)
C1C C 0.1355(2) 0.0507(2) 0.1618(3)
C1H C 0.1618(2) 0.1355(2) 0.0507(3)
C2C C 0.1372(2) 0.0535(2) 0.2491(3)
Si1C Si 0.2260(1) 0.1050(1) 0.3710(1)
C2H C 0.2491(2) 0.1372(2) 0.0535(3)
Si1H Si 0.3710(1) 0.2260(1) 0.1050(1)
H1C H 0.09110 0.02140 0.14500
H2C H 0.18210 0.02620 0.14310
H1H H 0.14500 0.09110 0.02140
H2H H 0.14310 0.18210 0.02620
H3C H 0.15410 0.00410 0.26890
H4C H 0.08600 0.06470 0.26820
C3C C 0.1843(3) 0.1810(3) 0.4351(3)
C4C C 0.1954(3) 0.0097(3) 0.4110(3)
C5C C 0.3340(3) 0.1067(3) 0.3744(3)
H3H H 0.26890 0.15410 0.00410
H4H H 0.26820 0.08600 0.06470
C3H C 0.4351(3) 0.1843(3) 0.1810(3)
C4H C 0.4110(3) 0.1954(3) 0.0097(3)
C5H C 0.3744(3) 0.3340(3) 0.1067(3)
H5C H 0.20400 0.17440 0.48690
H6C H 0.12870 0.17650 0.43560
H7C H 0.19880 0.23140 0.41590
H8C H 0.21440 0.00460 0.46330
H9C H 0.21650 -0.03120 0.37950
H10C H 0.13970 0.00640 0.41100
H11C H 0.35230 0.15540 0.35420
H12C H 0.35430 0.06490 0.34360
H13C H 0.35110 0.10090 0.42720
H5H H 0.48690 0.20400 0.17440
H6H H 0.43560 0.12870 0.17650
H7H H 0.41590 0.19880 0.23140
H8H H 0.46330 0.21440 0.00460
H9H H 0.37950 0.21650 -0.03120
H10H H 0.41100 0.13970 0.00640
H11H H 0.35420 0.35230 0.15540
H12H H 0.34360 0.35430 0.06490
H13H H 0.42720 0.35110 0.10090
#END

data_CSD_CIF_YUJYIM
_audit_creation_date 2010-08-06
_audit_creation_method CSD-ConQuest-V1
_database_code_CSD YUJYIM
_database_code_depnum_ccdc_archive 'CCDC 670733'
_chemical_formula_sum 'C57 H42 O3 P1'
_chemical_formula_moiety
;
C54 H39 O3 P1,0.5(C6 H6)
;
_journal_coden_Cambridge 467
_journal_volume 362
_journal_year 2009
_journal_page_first 106
_journal_name_full 'Appl.Catal.,A '
loop_
_publ_author_name
"I.Kownacki"
"B.Marciniec"
"H.Steinberger"
"M.Kubicki"
"M.Hoffmann"
"A.Ziarko"
"K.Szubert"
"M.Majchrzak"
"S.Rubinsztajn"
_chemical_name_systematic
;
tris(2,6-Diphenylphenyl)phosphite benzene solvate
;
_cell_volume   8912.231
_exptl_crystal_colour 'colorless'
_exptl_crystal_density_diffrn 1.201
_exptl_crystal_description 'prism'
_diffrn_ambient_temperature 295
#These two values have been output from a single CSD field.
_refine_ls_R_factor_gt 0.0474
_refine_ls_wR_factor_gt 0.0474
_symmetry_cell_setting cubic
_symmetry_space_group_name_H-M 'P a -3'
_symmetry_Int_Tables_number 205
loop_
_symmetry_equiv_pos_site_id
_symmetry_equiv_pos_as_xyz
1 x,y,z
2 1/2-x,-y,1/2+z
3 -x,1/2+y,1/2-z
4 1/2+x,1/2-y,-z
5 z,x,y
6 1/2+z,1/2-x,-y
7 1/2-z,-x,1/2+y
8 -z,1/2+x,1/2-y
9 y,z,x
10 -y,1/2+z,1/2-x
11 1/2+y,1/2-z,-x
12 1/2-y,-z,1/2+x
13 -x,-y,-z
14 -1/2+x,y,-1/2-z
15 x,-1/2-y,-1/2+z
16 -1/2-x,-1/2+y,z
17 -z,-x,-y
18 -1/2-z,-1/2+x,y
19 -1/2+z,x,-1/2-y
20 z,-1/2-x,-1/2+y
21 -y,-z,-x
22 y,-1/2-z,-1/2+x
23 -1/2-y,-1/2+z,x
24 -1/2+y,z,-1/2-x
_cell_length_a 20.733(1)
_cell_length_b 20.733(1)
_cell_length_c 20.733(1)
_cell_angle_alpha 90
_cell_angle_beta 90
_cell_angle_gamma 90
_cell_formula_units_Z 8
loop_
_atom_type_symbol
_atom_type_radius_bond
C 0.68
H 0.23
O 0.68
P 1.05
loop_
_atom_site_label
_atom_site_type_symbol
_atom_site_fract_x
_atom_site_fract_y
_atom_site_fract_z
P1 P 0.17936(2) 0.17936(2) 0.17936(2)
O1 O 0.10051(6) 0.18097(6) 0.18566(6)
C1 C 0.06831(10) 0.23951(9) 0.19529(10)
C2 C 0.02979(10) 0.26273(10) 0.14516(11)
C3 C 0.02228(9) 0.22783(10) 0.08291(11)
C4 C 0.03157(11) 0.25927(13) 0.02467(13)
H1 H 0.04480 0.30210 0.02460
C5 C 0.02145(13) 0.22785(16) -0.03367(13)
H2 H 0.02810 0.24960 -0.07230
C6 C 0.00170(13) 0.16512(15) -0.03418(13)
H3 H -0.00560 0.14420 -0.07320
C7 C -0.00742(12) 0.13298(13) 0.02273(13)
H4 H -0.02070 0.09010 0.02210
C8 C 0.00289(11) 0.16356(11) 0.08118(12)
H5 H -0.00320 0.14110 0.11950
C9 C -0.00318(12) 0.32082(11) 0.15547(15)
H6 H -0.02920 0.33740 0.12300
C10 C 0.00228(15) 0.35366(13) 0.21266(17)
H7 H -0.02020 0.39200 0.21860
C11 C 0.04054(14) 0.33029(12) 0.26106(15)
H8 H 0.04400 0.35340 0.29940
C12 C 0.07457(11) 0.27251(10) 0.25435(11)
C13 C 0.11589(13) 0.24833(13) 0.30774(11)
C14 C 0.16055(17) 0.28955(17) 0.33627(16)
H9 H 0.16520 0.33150 0.32120
C15 C 0.1979(2) 0.2679(3) 0.3870(2)
H10 H 0.22770 0.29560 0.40580
C16 C 0.1919(2) 0.2064(3) 0.40992(18)
H11 H 0.21740 0.19230 0.44400
C17 C 0.14808(19) 0.16581(18) 0.38235(15)
H12 H 0.14370 0.12390 0.39790
C18 C 0.11020(14) 0.18623(13) 0.33171(12)
H13 H 0.08050 0.15800 0.31340
C19 C 0.0093(3) 0.0506(2) 0.4598(3)
H14 H 0.01500 0.08600 0.43290
O1D O 0.18566(6) 0.10051(6) 0.18097(6)
O1H O 0.18097(6) 0.18566(6) 0.10051(6)
C1D C 0.19529(10) 0.06831(9) 0.23951(10)
C1H C 0.23951(10) 0.19529(9) 0.06831(10)
C2D C 0.14516(10) 0.02979(10) 0.26273(11)
C2H C 0.26273(10) 0.14516(10) 0.02979(11)
C3D C 0.08291(9) 0.02228(10) 0.22783(11)
C3H C 0.22783(9) 0.08291(10) 0.02228(11)
C4D C 0.02467(11) 0.03157(13) 0.25927(13)
C4H C 0.25927(11) 0.02467(13) 0.03157(13)
H1D H 0.02460 0.04480 0.30210
H1H H 0.30210 0.02460 0.04480
C5D C -0.03367(13) 0.02145(16) 0.22785(13)
C5H C 0.22785(13) -0.03367(16) 0.02145(13)
H2D H -0.07230 0.02810 0.24960
H2H H 0.24960 -0.07230 0.02810
C6D C -0.03418(13) 0.00170(15) 0.16512(13)
C6H C 0.16512(13) -0.03418(15) 0.00170(13)
H3D H -0.07320 -0.00560 0.14420
H3H H 0.14420 -0.07320 -0.00560
C7D C 0.02273(12) -0.00742(13) 0.13298(13)
C7H C 0.13298(12) 0.02273(13) -0.00742(13)
H4D H 0.02210 -0.02070 0.09010
H4H H 0.09010 0.02210 -0.02070
C8D C 0.08118(11) 0.00289(11) 0.16356(12)
C8H C 0.16356(11) 0.08118(11) 0.00289(12)
H5D H 0.11950 -0.00320 0.14110
H5H H 0.14110 0.11950 -0.00320
C9D C 0.15547(12) -0.00318(11) 0.32082(15)
C9H C 0.32082(12) 0.15547(11) -0.00318(15)
H6D H 0.12300 -0.02920 0.33740
H6H H 0.33740 0.12300 -0.02920
C10D C 0.21266(15) 0.00228(13) 0.35366(17)
C10H C 0.35366(15) 0.21266(13) 0.00228(17)
H7D H 0.21860 -0.02020 0.39200
H7H H 0.39200 0.21860 -0.02020
C11D C 0.26106(14) 0.04054(12) 0.33029(15)
C11H C 0.33029(14) 0.26106(12) 0.04054(15)
H8D H 0.29940 0.04400 0.35340
H8H H 0.35340 0.29940 0.04400
C12D C 0.25435(11) 0.07457(10) 0.27251(11)
C12H C 0.27251(11) 0.25435(10) 0.07457(11)
C13D C 0.30774(13) 0.11589(13) 0.24833(11)
C13H C 0.24833(13) 0.30774(13) 0.11589(11)
C14D C 0.33627(17) 0.16055(17) 0.28955(16)
C14H C 0.28955(17) 0.33627(17) 0.16055(16)
H9D H 0.32120 0.16520 0.33150
H9H H 0.33150 0.32120 0.16520
C15D C 0.3870(2) 0.1979(3) 0.2679(2)
C15H C 0.2679(2) 0.3870(3) 0.1979(2)
H10D H 0.40580 0.22770 0.29560
H10H H 0.29560 0.40580 0.22770
C16D C 0.40992(20) 0.1919(3) 0.20640(18)
C16H C 0.2064(2) 0.40992(30) 0.19190(18)
H11D H 0.44400 0.21740 0.19230
H11H H 0.19230 0.44400 0.21740
C17D C 0.38235(19) 0.14808(18) 0.16581(15)
C17H C 0.16581(19) 0.38235(18) 0.14808(15)
H12D H 0.39790 0.14370 0.12390
H12H H 0.12390 0.39790 0.14370
C18D C 0.33171(14) 0.11020(13) 0.18623(12)
C18H C 0.18623(14) 0.33171(13) 0.11020(12)
H13D H 0.31340 0.08050 0.15800
H13H H 0.15800 0.31340 0.08050
C19R C -0.0402(3) 0.0093(2) 0.4494(3)
C19U C 0.0506(3) 0.0402(2) 0.5093(3)
C19F C 0.0402(3) -0.0093(2) 0.5506(3)
C19I C -0.0506(3) -0.0402(2) 0.4907(3)
C19L C -0.0093(3) -0.0506(2) 0.5402(3)
H14R H -0.06710 0.01500 0.41400
H14U H 0.08600 0.06710 0.51500
H14F H 0.06710 -0.01500 0.58600
H14I H -0.08600 -0.06710 0.48500
H14L H -0.01500 -0.08600 0.56710
#END

data_CSD_CIF_YUMPAX
_audit_creation_date 1996-01-30
_audit_creation_method CSD-ConQuest-V1
_database_code_CSD YUMPAX
_database_code_depnum_ccdc_fiz 'CSD 58748'
_chemical_formula_sum 'C40 H120 B4 Si12 Zr1'
_chemical_formula_moiety
;
C40 H120 B4 Si12 Zr1
;
_journal_coden_Cambridge 155
_journal_volume 231
_journal_year 1995
_journal_page_first 175
_journal_name_full 'Inorg.Chim.Acta '
loop_
_publ_author_name
"U.Welling"
"P.Paetzold"
"U.Englert"
_chemical_name_systematic
;
tetrakis(tris(Trimethylsilyl)methyltrihydroborato)-zirconium
;
_chemical_melting_point 444.15
_cell_volume  13627.942
_exptl_crystal_colour 'colorless'
_exptl_crystal_density_diffrn 1.046
_exptl_special_details
;
Melts with decomposition.

;
_diffrn_ambient_temperature ?
_diffrn_special_details
;
The study was carried out at room temperature,in the range 283-303K

;
#These two values have been output from a single CSD field.
_refine_ls_R_factor_gt 0.032
_refine_ls_wR_factor_gt 0.032
_symmetry_cell_setting cubic
_symmetry_space_group_name_H-M 'P a 3'
_symmetry_Int_Tables_number 205
loop_
_symmetry_equiv_pos_site_id
_symmetry_equiv_pos_as_xyz
1 x,y,z
2 1/2-x,-y,1/2+z
3 1/2+x,1/2-y,-z
4 z,x,y
5 -x,1/2+y,1/2-z
6 1/2-z,-x,1/2+y
7 1/2+z,1/2-x,-y
8 -z,1/2+x,1/2-y
9 y,z,x
10 1/2+y,1/2-z,-x
11 -y,1/2+z,1/2-x
12 1/2-y,-z,1/2+x
13 -x,-y,-z
14 -1/2+x,y,-1/2-z
15 -1/2-x,-1/2+y,z
16 -z,-x,-y
17 x,-1/2-y,-1/2+z
18 -1/2+z,x,-1/2-y
19 -1/2-z,-1/2+x,y
20 z,-1/2-x,-1/2+y
21 -y,-z,-x
22 -1/2-y,-1/2+z,x
23 y,-1/2-z,-1/2+x
24 -1/2+y,z,-1/2-x
_cell_length_a 23.886(4)
_cell_length_b 23.886(4)
_cell_length_c 23.886(4)
_cell_angle_alpha 90
_cell_angle_beta 90
_cell_angle_gamma 90
_cell_formula_units_Z 8
loop_
_atom_type_symbol
_atom_type_radius_bond
C 0.68
H 0.23
B 0.83
Si 1.20
Zr 1.56
loop_
_atom_site_label
_atom_site_type_symbol
_atom_site_fract_x
_atom_site_fract_y
_atom_site_fract_z
Si1 Si 0.46291(3) 0.56373(4) 0.30239(3)
Si2 Si 0.41774(3) 0.46135(3) 0.23308(3)
Si3 Si 0.52849(3) 0.52140(3) 0.19656(4)
Si4 Si 0.26152(3) 0.68915(4) 0.29651(3)
Zr1 Zr 0.36792(1) 0.63200 0.13200
C1 C 0.4566(1) 0.5307(1) 0.2301(1)
C2 C 0.2725(1) 0.72800 0.22800
C3 C 0.4764(1) 0.6411(1) 0.2981(1)
C4 C 0.3976(1) 0.5558(1) 0.3449(1)
C5 C 0.5205(1) 0.5328(2) 0.3463(1)
C6 C 0.3400(1) 0.4715(1) 0.2399(1)
C7 C 0.4395(2) 0.4146(1) 0.2924(1)
C8 C 0.4281(1) 0.4199(1) 0.1674(1)
C9 C 0.5766(1) 0.5819(1) 0.2097(2)
C10 C 0.5668(1) 0.4574(2) 0.2219(2)
C11 C 0.5236(1) 0.5169(1) 0.1185(1)
C12 C 0.2488(1) 0.6125(1) 0.2865(1)
C13 C 0.3232(1) 0.6936(1) 0.3439(1)
C14 C 0.2014(1) 0.7175(2) 0.3382(1)
B1 B 0.4214(1) 0.5720(1) 0.1905(1)
B2 B 0.3110(1) 0.68900 0.18900
H1 H 0.438(1) 0.618(1) 0.182(1)
H2 H 0.374(1) 0.583(1) 0.202(1)
H3 H 0.415(1) 0.560(1) 0.143(1)
H4 H 0.297(1) 0.644(1) 0.179(1)
H5 H 0.47900 0.65600 0.33600
H6 H 0.44500 0.65900 0.27900
H7 H 0.51100 0.64900 0.27800
H8 H 0.40600 0.57300 0.38100
H9 H 0.39200 0.51500 0.35000
H10 H 0.36400 0.57300 0.32800
H11 H 0.55800 0.54100 0.33100
H12 H 0.51500 0.49200 0.34600
H13 H 0.51900 0.54700 0.38500
H14 H 0.33000 0.49800 0.26900
H15 H 0.32000 0.43600 0.24600
H16 H 0.32800 0.48700 0.20400
H17 H 0.48000 0.41000 0.29300
H18 H 0.42100 0.37800 0.29000
H19 H 0.42800 0.43300 0.32700
H20 H 0.42700 0.44600 0.13500
H21 H 0.46400 0.40000 0.16800
H22 H 0.39700 0.39300 0.16400
H23 H 0.61400 0.57200 0.19600
H24 H 0.57800 0.58900 0.25000
H25 H 0.56300 0.61600 0.19000
H26 H 0.56500 0.45500 0.26300
H27 H 0.60600 0.46000 0.21000
H28 H 0.55000 0.42400 0.20500
H29 H 0.50100 0.48600 0.10500
H30 H 0.56200 0.51300 0.10500
H31 H 0.50800 0.55300 0.10600
H32 H 0.22100 0.60700 0.25700
H33 H 0.23500 0.59600 0.32200
H34 H 0.28400 0.59400 0.27600
H35 H 0.32500 0.73300 0.35400
H36 H 0.31900 0.67200 0.37900
H37 H 0.35900 0.68400 0.32600
H38 H 0.20800 0.75700 0.34700
H39 H 0.16700 0.71400 0.31600
H40 H 0.19800 0.69600 0.37300
B1E B 0.3095(1) 0.5786(1) 0.0720(1)
B1J B 0.4280(1) 0.6905(1) 0.0786(1)
H1E H 0.318(1) 0.562(1) 0.118(1)
H1J H 0.382(1) 0.682(1) 0.062(1)
H2E H 0.298(1) 0.626(1) 0.083(1)
H2J H 0.417(1) 0.702(1) 0.126(1)
H3E H 0.357(1) 0.585(1) 0.060(1)
H3J H 0.440(1) 0.643(1) 0.085(1)
H4E H 0.321(1) 0.703(1) 0.144(1)
H4J H 0.356(1) 0.679(1) 0.203(1)
Si4E Si 0.20349(3) 0.73848(4) 0.18915(3)
Si4J Si 0.31085(3) 0.79651(4) 0.23848(3)
C1E C 0.2699(1) 0.5434(1) 0.0307(1)
C1J C 0.4693(1) 0.7301(1) 0.0434(1)
C12E C 0.2135(1) 0.7512(1) 0.1125(1)
C13E C 0.1561(1) 0.6768(1) 0.1936(1)
C14E C 0.1618(1) 0.7986(2) 0.2175(1)
C12J C 0.3875(1) 0.7865(1) 0.2512(1)
C13J C 0.3064(1) 0.8439(1) 0.1768(1)
C14J C 0.2825(1) 0.8382(2) 0.2986(1)
Si1E Si 0.19761(3) 0.53709(4) 0.06373(3)
Si2E Si 0.26692(3) 0.58226(3) -0.03865(3)
Si3E Si 0.30344(3) 0.47151(3) 0.02140(4)
Si1J Si 0.43627(3) 0.80239(4) 0.03709(3)
Si2J Si 0.53865(3) 0.73308(3) 0.08226(3)
Si3J Si 0.47860(3) 0.69656(3) -0.02849(4)
H32E H 0.24300 0.77900 0.10700
H33E H 0.17800 0.76500 0.09600
H34E H 0.22400 0.71600 0.09400
H35E H 0.14600 0.67500 0.23300
H36E H 0.12100 0.68100 0.17200
H37E H 0.17400 0.64100 0.18400
H38E H 0.15300 0.79200 0.25700
H39E H 0.18400 0.83300 0.21400
H40E H 0.12700 0.80200 0.19600
H32J H 0.39300 0.75700 0.27900
H33J H 0.40400 0.82200 0.26500
H34J H 0.40600 0.77600 0.21600
H35J H 0.26700 0.85400 0.17500
H36J H 0.32800 0.87900 0.18100
H37J H 0.31600 0.82600 0.14100
H38J H 0.24300 0.84700 0.29200
H39J H 0.28600 0.81600 0.33300
H40J H 0.30400 0.87300 0.30200
C3E C 0.2019(1) 0.5236(1) 0.1411(1)
C4E C 0.1551(1) 0.6024(1) 0.0558(1)
C5E C 0.1537(1) 0.4795(2) 0.0328(1)
C6E C 0.2601(1) 0.6600(1) -0.0285(1)
C7E C 0.2076(2) 0.5605(1) -0.0854(1)
C8E C 0.3326(1) 0.5719(1) -0.0801(1)
C9E C 0.2903(1) 0.4234(1) 0.0819(2)
C10E C 0.2781(1) 0.4332(2) -0.0426(2)
C11E C 0.3815(1) 0.4764(1) 0.0169(1)
C3J C 0.3589(1) 0.7981(1) 0.0236(1)
C4J C 0.4442(1) 0.8449(1) 0.1024(1)
C5J C 0.4672(1) 0.8463(2) -0.0205(1)
C6J C 0.5285(1) 0.7399(1) 0.1600(1)
C7J C 0.5854(2) 0.7924(1) 0.0605(1)
C8J C 0.5801(1) 0.6674(1) 0.0719(1)
C9J C 0.4181(1) 0.7097(1) -0.0766(2)
C10J C 0.5426(1) 0.7219(2) -0.0668(2)
C11J C 0.4831(1) 0.6185(1) -0.0236(1)
H5E H 0.16400 0.52100 0.15600
H6E H 0.22100 0.55500 0.15900
H7E H 0.22200 0.48900 0.14900
H8E H 0.11900 0.59400 0.07300
H9E H 0.15000 0.60800 0.01500
H10E H 0.17200 0.63600 0.07300
H11E H 0.16900 0.44200 0.04100
H12E H 0.15400 0.48500 -0.00800
H13E H 0.11500 0.48100 0.04700
H14E H 0.23100 0.67000 -0.00200
H15E H 0.25400 0.68000 -0.06400
H16E H 0.29600 0.67200 -0.01300
H17E H 0.20700 0.52000 -0.09000
H18E H 0.21000 0.57900 -0.12200
H19E H 0.17300 0.57200 -0.06700
H20E H 0.36500 0.57300 -0.05400
H21E H 0.33200 0.53600 -0.10000
H22E H 0.33600 0.60300 -0.10700
H23E H 0.30400 0.38600 0.07200
H24E H 0.25000 0.42200 0.08900
H25E H 0.31000 0.43700 0.11600
H26E H 0.23700 0.43500 -0.04500
H27E H 0.29000 0.39400 -0.04000
H28E H 0.29500 0.45000 -0.07600
H29E H 0.39500 0.49900 -0.01400
H30E H 0.39500 0.43800 0.01300
H31E H 0.39400 0.49200 0.05300
H5J H 0.34400 0.83600 0.02100
H6J H 0.34100 0.77900 0.05500
H7J H 0.35100 0.77800 -0.01100
H8J H 0.42700 0.88100 0.09400
H9J H 0.48500 0.85000 0.10800
H10J H 0.42700 0.82800 0.13600
H11J H 0.45900 0.83100 -0.05800
H12J H 0.50800 0.84600 -0.01500
H13J H 0.45300 0.88500 -0.01900
H14J H 0.50200 0.76900 0.17000
H15J H 0.56400 0.74600 0.18000
H16J H 0.51300 0.70400 0.17200
H17J H 0.59000 0.79300 0.02000
H18J H 0.62200 0.79000 0.07900
H19J H 0.56700 0.82700 0.07200
H20J H 0.55400 0.63500 0.07300
H21J H 0.60000 0.66800 0.03600
H22J H 0.60700 0.66400 0.10300
H23J H 0.42800 0.69600 -0.11400
H24J H 0.41100 0.75000 -0.07800
H25J H 0.38400 0.69000 -0.06300
H26J H 0.54500 0.76300 -0.06500
H27J H 0.54000 0.71000 -0.10600
H28J H 0.57600 0.70500 -0.05000
H29J H 0.51400 0.60500 -0.00100
H30J H 0.48700 0.60500 -0.06200
H31J H 0.44700 0.60600 -0.00800
#END

data_CSD_CIF_YUTDEY
_audit_creation_date 2015-11-06
_audit_creation_method CSD-ConQuest-V1
_database_code_CSD YUTDEY
_database_code_depnum_ccdc_archive 'CCDC 1435453'
_chemical_formula_sum 'C6 H18 Br6 S2 Te1'
_chemical_formula_moiety
;
2(C3 H9 S1 1+),Br6 Te1 2-
;
_journal_coden_Cambridge 1078
_journal_year 2015
_journal_name_full 'CSD Communication(Private Communication) '
loop_
_publ_author_name
"T.Junk"
"F.R.Fronczek"
_chemical_name_systematic
;
bis(trimethylsulfonium) hexabromo-tellurium(iv)
;
_cell_volume   2079.018
_exptl_crystal_colour 'orange'
_exptl_crystal_density_diffrn 2.432
_exptl_crystal_description 'flattened octahedron'
_diffrn_ambient_temperature 100
#These two values have been output from a single CSD field.
_refine_ls_R_factor_gt 0.03
_refine_ls_wR_factor_gt 0.03
_symmetry_cell_setting cubic
_symmetry_space_group_name_H-M 'P a -3'
_symmetry_Int_Tables_number 205
loop_
_symmetry_equiv_pos_site_id
_symmetry_equiv_pos_as_xyz
1 x,y,z
2 1/2-x,-y,1/2+z
3 -x,1/2+y,1/2-z
4 1/2+x,1/2-y,-z
5 z,x,y
6 1/2+z,1/2-x,-y
7 1/2-z,-x,1/2+y
8 -z,1/2+x,1/2-y
9 y,z,x
10 -y,1/2+z,1/2-x
11 1/2+y,1/2-z,-x
12 1/2-y,-z,1/2+x
13 -x,-y,-z
14 -1/2+x,y,-1/2-z
15 x,-1/2-y,-1/2+z
16 -1/2-x,-1/2+y,z
17 -z,-x,-y
18 -1/2-z,-1/2+x,y
19 -1/2+z,x,-1/2-y
20 z,-1/2-x,-1/2+y
21 -y,-z,-x
22 y,-1/2-z,-1/2+x
23 -1/2-y,-1/2+z,x
24 -1/2+y,z,-1/2-x
_cell_length_a 12.763(3)
_cell_length_b 12.763(3)
_cell_length_c 12.763(3)
_cell_angle_alpha 90
_cell_angle_beta 90
_cell_angle_gamma 90
_cell_formula_units_Z 4
loop_
_atom_type_symbol
_atom_type_radius_bond
C 0.68
H 0.23
Br 1.21
S 1.02
Te 1.47
loop_
_atom_site_label
_atom_site_type_symbol
_atom_site_fract_x
_atom_site_fract_y
_atom_site_fract_z
Te1 Te 0.50000 0.00000 0.50000
Br1 Br 0.45693(7) 0.03924(8) 0.70331(8)
S1 S 0.2685(2) 0.26850 0.26850
C1 C 0.1999(7) 0.3317(8) 0.1649(8)
H1 H 0.24870 0.36030 0.11650
H2 H 0.15780 0.38640 0.19280
H3 H 0.15650 0.28220 0.13010
Br1G Br 0.29669(7) -0.04307(8) 0.46076(8)
Br1J Br 0.53924(7) -0.20331(8) 0.54307(8)
Br1L Br 0.54307(7) -0.03924(8) 0.29669(8)
Br1S Br 0.70331(7) 0.04307(8) 0.53924(8)
Br1V Br 0.46076(7) 0.20331(8) 0.45693(8)
C1D C 0.1649(7) 0.1999(8) 0.3317(8)
H1D H 0.11650 0.24870 0.36030
H2D H 0.19280 0.15780 0.38640
H3D H 0.13010 0.15650 0.28220
C1H C 0.3317(7) 0.1649(8) 0.1999(8)
H1H H 0.36030 0.11650 0.24870
H2H H 0.38640 0.19280 0.15780
H3H H 0.28220 0.13010 0.15650
#END

data_CSD_CIF_YUWFOM
_audit_creation_date 2010-11-24
_audit_creation_method CSD-ConQuest-V1
_database_code_CSD YUWFOM
_database_code_depnum_ccdc_archive 'CCDC 764400'
_chemical_formula_sum 'C14 H36 O6 Si5'
_chemical_formula_moiety
;
C14 H36 O6 Si5
;
_journal_coden_Cambridge 29
_journal_volume 636
_journal_year 2010
_journal_page_first 1212
_journal_name_full 'Z.Anorg.Allg.Chem. '
loop_
_publ_author_name
"M.Veith"
"A.Rammo"
"O.Schutt"
"V.Huch"
_chemical_name_systematic
;
1,5-Di-t-butyl-3,3,7,7,10,10-hexamethylbicyclo[3.3.3]pentasiloxane
;
_cell_volume   5068.948
_exptl_crystal_density_diffrn 1.155
_diffrn_ambient_temperature 293
#These two values have been output from a single CSD field.
_refine_ls_R_factor_gt 0.0439
_refine_ls_wR_factor_gt 0.0439
_symmetry_cell_setting cubic
_symmetry_space_group_name_H-M 'P a -3'
_symmetry_Int_Tables_number 205
loop_
_symmetry_equiv_pos_site_id
_symmetry_equiv_pos_as_xyz
1 x,y,z
2 1/2-x,-y,1/2+z
3 -x,1/2+y,1/2-z
4 1/2+x,1/2-y,-z
5 z,x,y
6 1/2+z,1/2-x,-y
7 1/2-z,-x,1/2+y
8 -z,1/2+x,1/2-y
9 y,z,x
10 -y,1/2+z,1/2-x
11 1/2+y,1/2-z,-x
12 1/2-y,-z,1/2+x
13 -x,-y,-z
14 -1/2+x,y,-1/2-z
15 x,-1/2-y,-1/2+z
16 -1/2-x,-1/2+y,z
17 -z,-x,-y
18 -1/2-z,-1/2+x,y
19 -1/2+z,x,-1/2-y
20 z,-1/2-x,-1/2+y
21 -y,-z,-x
22 y,-1/2-z,-1/2+x
23 -1/2-y,-1/2+z,x
24 -1/2+y,z,-1/2-x
_cell_length_a 17.178(2)
_cell_length_b 17.178(2)
_cell_length_c 17.178(2)
_cell_angle_alpha 90
_cell_angle_beta 90
_cell_angle_gamma 90
_cell_formula_units_Z 8
loop_
_atom_type_symbol
_atom_type_radius_bond
C 0.68
H 0.23
O 0.68
Si 1.20
loop_
_atom_site_label
_atom_site_type_symbol
_atom_site_fract_x
_atom_site_fract_y
_atom_site_fract_z
Si1 Si 0.18542(5) 0.18542(5) 0.18542(5)
Si2 Si 0.34427(5) 0.14324(5) 0.25777(5)
Si3 Si 0.31178(5) 0.31178(5) 0.31178(5)
O1 O 0.25828(13) 0.13575(12) 0.21778(14)
O2 O 0.35143(13) 0.22758(13) 0.30014(16)
C1 C 0.12287(16) 0.12287(16) 0.12287(16)
C2 C 0.0969(2) 0.05077(18) 0.16894(19)
H1 H 0.14180 0.02180 0.18510
H2 H 0.06460 0.01860 0.13650
H3 H 0.06790 0.06690 0.21390
C3 C 0.37417(17) 0.37417(17) 0.37417(17)
C4 C 0.4193(2) 0.1361(2) 0.1821(2)
H4 H 0.41550 0.08650 0.15670
H5 H 0.46990 0.14120 0.20540
H6 H 0.41190 0.17690 0.14460
C5 C 0.3876(2) 0.3344(2) 0.4531(2)
H7 H 0.41250 0.28500 0.44510
H8 H 0.33840 0.32650 0.47860
H9 H 0.42010 0.36680 0.48500
C6 C 0.3533(2) 0.0666(2) 0.3320(2)
H10 H 0.34880 0.01650 0.30770
H11 H 0.31280 0.07260 0.37000
H12 H 0.40310 0.07070 0.35710
Si2D Si 0.25777(5) 0.34427(5) 0.14324(5)
Si2H Si 0.14324(5) 0.25777(5) 0.34427(5)
O1D O 0.21778(13) 0.25828(12) 0.13575(14)
O1H O 0.13575(13) 0.21778(12) 0.25828(14)
O2D O 0.30014(13) 0.35143(13) 0.22758(16)
O2H O 0.22758(13) 0.30014(13) 0.35143(16)
C2D C 0.16894(20) 0.09690(18) 0.05077(19)
C2H C 0.05077(20) 0.16894(18) 0.09690(19)
H1D H 0.18510 0.14180 0.02180
H1H H 0.02180 0.18510 0.14180
H2D H 0.13650 0.06460 0.01860
H2H H 0.01860 0.13650 0.06460
H3D H 0.21390 0.06790 0.06690
H3H H 0.06690 0.21390 0.06790
C4D C 0.1821(2) 0.4193(2) 0.1361(2)
C4H C 0.1361(2) 0.1821(2) 0.4193(2)
H4D H 0.15670 0.41550 0.08650
H4H H 0.08650 0.15670 0.41550
H5D H 0.20540 0.46990 0.14120
H5H H 0.14120 0.20540 0.46990
H6D H 0.14460 0.41190 0.17690
H6H H 0.17690 0.14460 0.41190
C5D C 0.4531(2) 0.3876(2) 0.3344(2)
C5H C 0.3344(2) 0.4531(2) 0.3876(2)
H7D H 0.44510 0.41250 0.28500
H7H H 0.28500 0.44510 0.41250
H8D H 0.47860 0.33840 0.32650
H8H H 0.32650 0.47860 0.33840
H9D H 0.48500 0.42010 0.36680
H9H H 0.36680 0.48500 0.42010
C6D C 0.3320(2) 0.3533(2) 0.0666(2)
C6H C 0.0666(2) 0.3320(2) 0.3533(2)
H10D H 0.30770 0.34880 0.01650
H10H H 0.01650 0.30770 0.34880
H11D H 0.37000 0.31280 0.07260
H11H H 0.07260 0.37000 0.31280
H12D H 0.35710 0.40310 0.07070
H12H H 0.07070 0.35710 0.40310
#END

data_CSD_CIF_ZAQZII
_audit_creation_date 1996-06-26
_audit_creation_method CSD-ConQuest-V1
_database_code_CSD ZAQZII
_chemical_formula_sum 'C16 F36 Na4 O4'
_chemical_formula_moiety
;
C16 F36 Na4 O4
;
_journal_coden_Cambridge 1096
_journal_volume 7
_journal_year 1995
_journal_page_first 929
_journal_name_full 'Chem.Mater. '
loop_
_publ_author_name
"J.A.Samuels"
"K.Folting"
"J.C.Huffman"
"K.G.Caulton"
_chemical_name_systematic
;
tetrakis((\m~3~-2-Perfluoro-t-butoxo)-sodium)
;
_cell_volume   6247.804
_exptl_special_details
;
Isomorphous with the trifluoro analogue

;
_diffrn_ambient_temperature 101.15
#These two values have been output from a single CSD field.
_refine_ls_R_factor_gt 0.0259
_refine_ls_wR_factor_gt 0.0259
_symmetry_cell_setting cubic
_symmetry_space_group_name_H-M 'P a 3'
_symmetry_Int_Tables_number 205
loop_
_symmetry_equiv_pos_site_id
_symmetry_equiv_pos_as_xyz
1 x,y,z
2 1/2-x,-y,1/2+z
3 1/2+x,1/2-y,-z
4 z,x,y
5 -x,1/2+y,1/2-z
6 1/2-z,-x,1/2+y
7 1/2+z,1/2-x,-y
8 -z,1/2+x,1/2-y
9 y,z,x
10 1/2+y,1/2-z,-x
11 -y,1/2+z,1/2-x
12 1/2-y,-z,1/2+x
13 -x,-y,-z
14 -1/2+x,y,-1/2-z
15 -1/2-x,-1/2+y,z
16 -z,-x,-y
17 x,-1/2-y,-1/2+z
18 -1/2+z,x,-1/2-y
19 -1/2-z,-1/2+x,y
20 z,-1/2-x,-1/2+y
21 -y,-z,-x
22 -1/2-y,-1/2+z,x
23 y,-1/2-z,-1/2+x
24 -1/2+y,z,-1/2-x
_cell_length_a 18.418(3)
_cell_length_b 18.418(3)
_cell_length_c 18.418(3)
_cell_angle_alpha 90
_cell_angle_beta 90
_cell_angle_gamma 90
_cell_formula_units_Z 8
loop_
_atom_type_symbol
_atom_type_radius_bond
C 0.68
F 0.64
Na 1.26
O 0.68
loop_
_atom_site_label
_atom_site_type_symbol
_atom_site_fract_x
_atom_site_fract_y
_atom_site_fract_z
Na1 Na 0.0987(1) 0.6869(1) 0.7534(1)
Na2 Na 0.2618(1) 0.76180 0.73820
O1 O 0.1520(1) 0.7936(1) 0.7891(1)
C1 C 0.1278(2) 0.8624(2) 0.7881(2)
C2 C 0.0617(2) 0.8712(2) 0.8397(2)
F1 F 0.0755(1) 0.8378(1) 0.9035(1)
F2 F 0.0029(1) 0.8395(1) 0.8125(1)
F3 F 0.0452(1) 0.9399(1) 0.8553(1)
C3 C 0.1047(2) 0.8846(2) 0.7101(2)
F4 F 0.1632(1) 0.8911(1) 0.6676(1)
F5 F 0.0628(1) 0.8335(1) 0.6804(1)
F6 F 0.0684(1) 0.9470(1) 0.7072(1)
C4 C 0.1894(2) 0.9129(2) 0.8139(2)
F7 F 0.1785(1) 0.9842(1) 0.8028(1)
F8 F 0.2020(1) 0.9041(1) 0.8846(1)
F9 F 0.2519(1) 0.8964(1) 0.7800(1)
O2 O 0.1382(1) 0.63820 0.86180
C5 C 0.0961(2) 0.59610 0.90390
C6 C 0.0151(2) 0.6162(2) 0.8940(2)
F10 F -0.0317(1) 0.5678(1) 0.9198(1)
F11 F 0.0005(1) 0.6240(1) 0.8226(1)
F12 F 0.0001(1) 0.6800(1) 0.9243(1)
Na1I Na 0.1869(1) 0.7466(1) 0.9013(1)
O1I O 0.2936(1) 0.7109(1) 0.8480(1)
Na1G Na 0.2466(1) 0.5987(1) 0.8131(1)
O1G O 0.2109(1) 0.6520(1) 0.7064(1)
C6G C 0.1060(2) 0.5151(2) 0.8838(2)
F10G F 0.0802(1) 0.4683(1) 0.9322(1)
F11G F 0.1774(1) 0.5005(1) 0.8760(1)
F12G F 0.0757(1) 0.5001(1) 0.8200(1)
C6I C 0.1162(2) 0.6060(2) 0.9849(2)
F10I F 0.0678(1) 0.5802(1) 1.0317(1)
F11I F 0.1240(1) 0.6774(1) 0.9995(1)
F12I F 0.1800(1) 0.5757(1) 0.9999(1)
C1I C 0.3624(2) 0.7119(2) 0.8722(2)
C2I C 0.3712(2) 0.6603(2) 0.9383(2)
F1I F 0.3378(1) 0.5965(1) 0.9245(1)
F2I F 0.3395(1) 0.6875(1) 0.9971(1)
F3I F 0.4399(1) 0.6447(1) 0.9548(1)
C3I C 0.3846(2) 0.7899(2) 0.8953(2)
F4I F 0.3911(1) 0.8324(1) 0.8368(1)
F5I F 0.3335(1) 0.8196(1) 0.9372(1)
F6I F 0.4470(1) 0.7928(1) 0.9316(1)
C4I C 0.4129(2) 0.6861(2) 0.8106(2)
F7I F 0.4842(1) 0.6972(1) 0.8215(1)
F8I F 0.4041(1) 0.6154(1) 0.7980(1)
F9I F 0.3964(1) 0.7200(1) 0.7481(1)
C1G C 0.2119(2) 0.6278(2) 0.6376(2)
C2G C 0.1603(2) 0.5617(2) 0.6288(2)
F1G F 0.0965(1) 0.5755(1) 0.6622(1)
F2G F 0.1875(1) 0.5029(1) 0.6605(1)
F3G F 0.1447(1) 0.5452(1) 0.5601(1)
C3G C 0.2899(2) 0.6047(2) 0.6154(2)
F4G F 0.3324(1) 0.6632(1) 0.6089(1)
F5G F 0.3196(1) 0.5628(1) 0.6665(1)
F6G F 0.2928(1) 0.5684(1) 0.5530(1)
C4G C 0.1861(2) 0.6894(2) 0.5871(2)
F7G F 0.1972(1) 0.6785(1) 0.5158(1)
F8G F 0.1154(1) 0.7020(1) 0.5959(1)
F9G F 0.2200(1) 0.7519(1) 0.6036(1)
#END

data_CSD_CIF_ZEKYOG
_audit_creation_date 2017-11-04
_audit_creation_method CSD-ConQuest-V1
_database_code_CSD ZEKYOG
_database_code_depnum_ccdc_archive 'CCDC 1536599'
_chemical_formula_sum 'C7 H10 O3'
_chemical_formula_moiety
;
C7 H10 O3
;
_journal_coden_Cambridge 179
_journal_volume 56
_journal_year 2017
_journal_page_first 15456
_journal_name_full 'Angew.Chem.,Int.Ed. '
loop_
_publ_author_name
"V.Kozel"
"C.-G.Daniliuc"
"P.Kirsch"
"G.Haufe"
_chemical_name_systematic
;
(3RS,5RS,7RS)-tricyclo[2.2.1.0^2,6^]heptane-3,5,7-triol
;
_cell_volume   1357.491
_exptl_crystal_colour 'colorless'
_exptl_crystal_density_diffrn 1.391
_exptl_crystal_description 'plate'
_diffrn_ambient_temperature 223
#These two values have been output from a single CSD field.
_refine_ls_R_factor_gt 0.0389
_refine_ls_wR_factor_gt 0.0389
_symmetry_cell_setting cubic
_symmetry_space_group_name_H-M 'P a -3'
_symmetry_Int_Tables_number 205
loop_
_symmetry_equiv_pos_site_id
_symmetry_equiv_pos_as_xyz
1 x,y,z
2 1/2-x,-y,1/2+z
3 -x,1/2+y,1/2-z
4 1/2+x,1/2-y,-z
5 z,x,y
6 1/2+z,1/2-x,-y
7 1/2-z,-x,1/2+y
8 -z,1/2+x,1/2-y
9 y,z,x
10 -y,1/2+z,1/2-x
11 1/2+y,1/2-z,-x
12 1/2-y,-z,1/2+x
13 -x,-y,-z
14 -1/2+x,y,-1/2-z
15 x,-1/2-y,-1/2+z
16 -1/2-x,-1/2+y,z
17 -z,-x,-y
18 -1/2-z,-1/2+x,y
19 -1/2+z,x,-1/2-y
20 z,-1/2-x,-1/2+y
21 -y,-z,-x
22 y,-1/2-z,-1/2+x
23 -1/2-y,-1/2+z,x
24 -1/2+y,z,-1/2-x
_cell_length_a 11.0725(6)
_cell_length_b 11.0725(6)
_cell_length_c 11.0725(6)
_cell_angle_alpha 90
_cell_angle_beta 90
_cell_angle_gamma 90
_cell_formula_units_Z 8
loop_
_atom_type_symbol
_atom_type_radius_bond
C 0.68
H 0.23
O 0.68
loop_
_atom_site_label
_atom_site_type_symbol
_atom_site_fract_x
_atom_site_fract_y
_atom_site_fract_z
O1 O 1.20491(9) 0.58913(9) 0.39810(9)
H1 H 1.172(2) 0.624(2) 0.460(2)
C1 C 1.21875(11) 0.78125(11) 0.28125(11)
H2 H 1.16710 0.83290 0.33290
C2 C 1.28427(12) 0.67569(12) 0.34399(12)
H3 H 1.34400 0.70580 0.40330
C3 C 1.34651(12) 0.62530(11) 0.23306(12)
H4 H 1.39900 0.55300 0.23620
O1F O 1.10190(9) 0.79509(9) 0.08913(9)
H1F H 1.040(2) 0.828(2) 0.124(2)
C2F C 1.15601(12) 0.71573(12) 0.17569(12)
H3F H 1.09670 0.65600 0.20580
C3F C 1.26694(12) 0.65349(11) 0.12530(12)
H4F H 1.26380 0.60100 0.05300
O1I O 1.41087(9) 0.89810(9) 0.29509(9)
H1I H 1.376(2) 0.960(2) 0.328(2)
C2I C 1.32431(12) 0.84399(12) 0.21573(12)
H3I H 1.29420 0.90330 0.15600
C3I C 1.37470(12) 0.73306(11) 0.15349(12)
H4I H 1.44700 0.73620 0.10100
#END

data_CSD_CIF_ZEQXEY
_audit_creation_date 1996-06-03
_audit_creation_method CSD-ConQuest-V1
_database_code_CSD ZEQXEY
_chemical_formula_sum 'C15 H39 N4 P1 Si3 W1'
_chemical_formula_moiety
;
C15 H39 N4 P1 Si3 W1
;
_journal_coden_Cambridge 179
_journal_volume 34
_journal_year 1995
_journal_page_first 2044
_journal_name_full 'Angew.Chem.,Int.Ed. '
loop_
_publ_author_name
"N.C.Zanetti"
"R.R.Schrock"
"W.M.Davis"
_chemical_name_systematic
;
(tris(2-(Trimethylsilylamino)ethyl)amine)-phosphido-tungsten
;
_cell_volume   5058.332
_exptl_crystal_colour 'yellow'
_exptl_crystal_density_diffrn 1.509
_exptl_special_details
;
Space group published as Pa-3

;
_diffrn_ambient_temperature 187
#These two values have been output from a single CSD field.
_refine_ls_R_factor_gt 0.025
_refine_ls_wR_factor_gt 0.025
_symmetry_cell_setting cubic
_symmetry_space_group_name_H-M 'P a 3'
_symmetry_Int_Tables_number 205
loop_
_symmetry_equiv_pos_site_id
_symmetry_equiv_pos_as_xyz
1 x,y,z
2 1/2-x,-y,1/2+z
3 1/2+x,1/2-y,-z
4 z,x,y
5 -x,1/2+y,1/2-z
6 1/2-z,-x,1/2+y
7 1/2+z,1/2-x,-y
8 -z,1/2+x,1/2-y
9 y,z,x
10 1/2+y,1/2-z,-x
11 -y,1/2+z,1/2-x
12 1/2-y,-z,1/2+x
13 -x,-y,-z
14 -1/2+x,y,-1/2-z
15 -1/2-x,-1/2+y,z
16 -z,-x,-y
17 x,-1/2-y,-1/2+z
18 -1/2+z,x,-1/2-y
19 -1/2-z,-1/2+x,y
20 z,-1/2-x,-1/2+y
21 -y,-z,-x
22 -1/2-y,-1/2+z,x
23 y,-1/2-z,-1/2+x
24 -1/2+y,z,-1/2-x
_cell_length_a 17.166(4)
_cell_length_b 17.166(4)
_cell_length_c 17.166(4)
_cell_angle_alpha 90
_cell_angle_beta 90
_cell_angle_gamma 90
_cell_formula_units_Z 8
loop_
_atom_type_symbol
_atom_type_radius_bond
C 0.68
H 0.23
N 0.68
P 1.05
Si 1.20
W 1.37
loop_
_atom_site_label
_atom_site_type_symbol
_atom_site_fract_x
_atom_site_fract_y
_atom_site_fract_z
W1 W 0.20704(2) 0.20700 0.20700
P1 P 0.2797(1) 0.27970 0.27970
Si1 Si 0.2236(2) 0.1055(2) 0.3709(2)
N1 N 0.1892(4) 0.1158(4) 0.2749(3)
N2 N 0.1282(4) 0.12820 0.12820
C1 C 0.1351(5) 0.0548(5) 0.2489(6)
C2 C 0.1325(6) 0.0501(5) 0.1615(6)
C3 C 0.3306(6) 0.1049(7) 0.3751(6)
C4 C 0.1831(6) 0.1816(6) 0.4360(6)
C5 C 0.1915(8) 0.0121(6) 0.4118(6)
H1 H 0.15170 0.00380 0.26690
H2 H 0.08400 0.06360 0.26650
H3 H 0.08870 0.02110 0.14110
H4 H 0.17900 0.02580 0.13890
H5 H 0.35300 0.09690 0.42380
H6 H 0.35200 0.05730 0.34260
H7 H 0.35550 0.14740 0.34890
H8 H 0.20590 0.17700 0.48960
H9 H 0.20060 0.23430 0.41990
H10 H 0.13000 0.18190 0.44080
H11 H 0.13480 0.00590 0.40940
H12 H 0.21010 -0.03260 0.37770
H13 H 0.20850 0.00130 0.46150
N1C N 0.2749(4) 0.1892(4) 0.1158(3)
Si1C Si 0.3709(2) 0.2236(2) 0.1055(2)
C3C C 0.3751(6) 0.3306(7) 0.1049(6)
H5C H 0.42380 0.35300 0.09690
H6C H 0.34260 0.35200 0.05730
H7C H 0.34890 0.35550 0.14740
C4C C 0.4360(6) 0.1831(6) 0.1816(6)
H8C H 0.48960 0.20590 0.17700
H9C H 0.41990 0.20060 0.23430
H10C H 0.44080 0.13000 0.18190
C5C C 0.4118(8) 0.1915(6) 0.0121(6)
H11C H 0.40940 0.13480 0.00590
H12C H 0.37770 0.21010 -0.03260
H13C H 0.46150 0.20850 0.00130
C1C C 0.2489(5) 0.1351(5) 0.0548(6)
C2C C 0.1615(6) 0.1325(5) 0.0501(6)
C2H C 0.0501(6) 0.1615(5) 0.1325(6)
C1H C 0.0548(5) 0.2489(5) 0.1351(6)
N1H N 0.1158(4) 0.2749(4) 0.1892(3)
Si1H Si 0.1055(2) 0.3709(2) 0.2236(2)
C3H C 0.1049(6) 0.3751(7) 0.3306(6)
H5H H 0.09690 0.42380 0.35300
H6H H 0.05730 0.34260 0.35200
H7H H 0.14740 0.34890 0.35550
C4H C 0.1816(6) 0.4360(6) 0.1831(6)
H8H H 0.17700 0.48960 0.20590
H9H H 0.23430 0.41990 0.20060
H10H H 0.18190 0.44080 0.13000
C5H C 0.0121(8) 0.4118(6) 0.1915(6)
H11H H 0.00590 0.40940 0.13480
H12H H -0.03260 0.37770 0.21010
H13H H 0.00130 0.46150 0.20850
H1H H 0.00380 0.26690 0.15170
H2H H 0.06360 0.26650 0.08400
H3H H 0.02110 0.14110 0.08870
H4H H 0.02580 0.13890 0.17900
H3C H 0.14110 0.08870 0.02110
H4C H 0.13890 0.17900 0.02580
H1C H 0.26690 0.15170 0.00380
H2C H 0.26650 0.08400 0.06360
#END

data_CSD_CIF_ZIDYET02
_audit_creation_date 2018-12-05
_audit_creation_method CSD-ConQuest-V1
_database_code_CSD ZIDYET02
_database_code_depnum_ccdc_archive 'CCDC 1862851'
_chemical_formula_sum 'C6 H17 Cl3 N2 O13'
_chemical_formula_moiety
;
C6 H14 N2 2+,3(Cl1 O4 1-),H3 O1 1+
;
_journal_coden_Cambridge 1147
_journal_volume 18
_journal_year 2018
_journal_page_first 7106
_journal_name_full 'Cryst.Growth Des. '
loop_
_publ_author_name
"M.Szafranski"
_chemical_name_systematic
;
1,4-diazabicyclo[2.2.2]octane-1,4-diium oxidanium tris(perchlorate)
;
_cell_volume   2948.821
_exptl_crystal_colour 'colorless'
_exptl_crystal_density_diffrn 1.944
_exptl_crystal_description 'prism'
_diffrn_ambient_temperature 310
#These two values have been output from a single CSD field.
_refine_ls_R_factor_gt 0.0297
_refine_ls_wR_factor_gt 0.0297
_symmetry_cell_setting cubic
_symmetry_space_group_name_H-M 'P a -3'
_symmetry_Int_Tables_number 205
loop_
_symmetry_equiv_pos_site_id
_symmetry_equiv_pos_as_xyz
1 x,y,z
2 1/2-x,-y,1/2+z
3 1/2+x,1/2-y,-z
4 -x,1/2+y,1/2-z
5 z,x,y
6 y,z,x
7 1/2-z,-x,1/2+y
8 -y,1/2+z,1/2-x
9 1/2+z,1/2-x,-y
10 1/2-y,-z,1/2+x
11 -z,1/2+x,1/2-y
12 1/2+y,1/2-z,-x
13 -x,-y,-z
14 -1/2+x,y,-1/2-z
15 -1/2-x,-1/2+y,z
16 x,-1/2-y,-1/2+z
17 -z,-x,-y
18 -y,-z,-x
19 -1/2+z,x,-1/2-y
20 y,-1/2-z,-1/2+x
21 -1/2-z,-1/2+x,y
22 -1/2+y,z,-1/2-x
23 z,-1/2-x,-1/2+y
24 -1/2-y,-1/2+z,x
_cell_length_a 14.34001(19)
_cell_length_b 14.34001(19)
_cell_length_c 14.34001(19)
_cell_angle_alpha 90
_cell_angle_beta 90
_cell_angle_gamma 90
_cell_formula_units_Z 8
loop_
_atom_type_symbol
_atom_type_radius_bond
C 0.68
H 0.23
Cl 0.99
N 0.68
O 0.68
loop_
_atom_site_label
_atom_site_type_symbol
_atom_site_fract_x
_atom_site_fract_y
_atom_site_fract_z
Cl1 Cl 0.00047(2) 0.48596(3) 0.25110(3)
O1 O -0.01978(9) 0.39903(8) 0.20709(9)
O2 O -0.07727(9) 0.51351(8) 0.30717(9)
O3 O 0.01720(8) 0.55615(8) 0.18215(9)
O4 O 0.08117(10) 0.47677(9) 0.3082(1)
O5 O 0.00000 0.50000 0.00000
O6 O 0.00000 0.50000 0.50000
N1 N 0.19354(9) 0.19354(9) 0.19354(9)
N2 N 0.29328(9) 0.29328(9) 0.29328(9)
C1 C 0.20718(12) 0.26805(12) 0.34589(11)
H1 H 0.17819 0.32372 0.37110
H2 H 0.22257 0.22682 0.39726
C2 C 0.14111(12) 0.21977(13) 0.27917(12)
H3 H 0.11528 0.16444 0.30827
H4 H 0.09008 0.26121 0.26321
H5 H 0.1577(12) 0.1577(12) 0.1577(12)
H6 H 0.3321(15) 0.3321(15) 0.3321(15)
H7? H 0.00(1) 0.481(8) -0.040(5)
H8? H -0.007(4) 0.486(6) 0.543(4)
C1D C 0.34589(12) 0.20718(12) 0.26805(11)
H1D H 0.37110 0.17819 0.32372
H2D H 0.39726 0.22257 0.22682
C2D C 0.27917(12) 0.14111(13) 0.21977(12)
H3D H 0.30827 0.11528 0.16444
H4D H 0.26321 0.09008 0.26121
C1E C 0.26805(12) 0.34589(12) 0.20718(11)
H1E H 0.32372 0.37110 0.17819
H2E H 0.22682 0.39726 0.22257
C2E C 0.21977(12) 0.27917(13) 0.14111(12)
H3E H 0.16444 0.30827 0.11528
H4E H 0.26121 0.26321 0.09008
#END

data_CSD_CIF_ZIQNAO
_audit_creation_date 1996-06-30
_audit_creation_method CSD-ConQuest-V1
_database_code_CSD ZIQNAO
_database_code_depnum_ccdc_archive 'CCDC 1312992'
_chemical_formula_sum 'C25 H22 Mo3 O6'
_chemical_formula_moiety
;
C25 H22 Mo3 O6
;
_journal_coden_Cambridge 579
_journal_volume 14
_journal_year 1995
_journal_page_first 5209
_journal_name_full 'Organometallics '
loop_
_publ_author_name
"M.Akita"
"K.Noda"
"Y.Takahashi"
"Y.Moro-oka"
_chemical_name_systematic
;
(\m~3~-Methylidyne)-tris(\h^5^-methylcyclopentadienyl)-hexacarbonyl-tri-molybd
enum
;
_cell_volume   4802.857
_exptl_crystal_colour 'black purple'
_exptl_crystal_density_diffrn 1.95
_exptl_special_details
;
Space group published as Pa-3

;
_diffrn_ambient_temperature ?
_diffrn_special_details
;
The study was carried out at room temperature,in the range 283-303K

;
#These two values have been output from a single CSD field.
_refine_ls_R_factor_gt 0.04
_refine_ls_wR_factor_gt 0.04
_symmetry_cell_setting cubic
_symmetry_space_group_name_H-M 'P a 3'
_symmetry_Int_Tables_number 205
loop_
_symmetry_equiv_pos_site_id
_symmetry_equiv_pos_as_xyz
1 x,y,z
2 1/2-x,-y,1/2+z
3 1/2+x,1/2-y,-z
4 z,x,y
5 -x,1/2+y,1/2-z
6 1/2-z,-x,1/2+y
7 1/2+z,1/2-x,-y
8 -z,1/2+x,1/2-y
9 y,z,x
10 1/2+y,1/2-z,-x
11 -y,1/2+z,1/2-x
12 1/2-y,-z,1/2+x
13 -x,-y,-z
14 -1/2+x,y,-1/2-z
15 -1/2-x,-1/2+y,z
16 -z,-x,-y
17 x,-1/2-y,-1/2+z
18 -1/2+z,x,-1/2-y
19 -1/2-z,-1/2+x,y
20 z,-1/2-x,-1/2+y
21 -y,-z,-x
22 -1/2-y,-1/2+z,x
23 y,-1/2-z,-1/2+x
24 -1/2+y,z,-1/2-x
_cell_length_a 16.872(5)
_cell_length_b 16.872(5)
_cell_length_c 16.872(5)
_cell_angle_alpha 90
_cell_angle_beta 90
_cell_angle_gamma 90
_cell_formula_units_Z 8
loop_
_atom_type_symbol
_atom_type_radius_bond
C 0.68
H 0.23
Mo 1.47
O 0.68
loop_
_atom_site_label
_atom_site_type_symbol
_atom_site_fract_x
_atom_site_fract_y
_atom_site_fract_z
Mo1 Mo 0.15078(6) 0.11019(6) 0.25330(7)
O1 O 0.3207(5) 0.0364(6) 0.2730(6)
O2 O 0.2299(6) 0.2302(6) 0.3644(5)
C1 C 0.1330(7) 0.13300 0.13300
C2 C 0.2632(9) 0.0639(7) 0.2542(9)
C3 C 0.2001(8) 0.1881(8) 0.3209(7)
C4 C 0.060(1) 0.003(1) 0.237(1)
C5 C 0.119(1) -0.0193(8) 0.289(1)
C6 C 0.114(1) 0.025(1) 0.353(1)
C7 C 0.0549(8) 0.0799(9) 0.3434(9)
C8 C 0.0192(8) 0.0650(9) 0.2718(9)
C9 C 0.037(1) -0.035(1) 0.164(1)
H1 H 0.094(8) 0.09410 0.09410
Mo1C Mo 0.25330(6) 0.15078(6) 0.11019(7)
Mo1H Mo 0.11019(6) 0.25330(6) 0.15078(7)
C2C C 0.2542(9) 0.2632(7) 0.0639(9)
O1C O 0.2730(5) 0.3207(6) 0.0364(6)
C3C C 0.3209(8) 0.2001(8) 0.1881(7)
O2C O 0.3644(6) 0.2299(6) 0.2302(5)
C4C C 0.237(1) 0.060(1) 0.003(1)
C5C C 0.289(1) 0.1190(8) -0.0193(10)
C6C C 0.353(1) 0.114(1) 0.025(1)
C7C C 0.3434(8) 0.0549(9) 0.0799(9)
C8C C 0.2718(8) 0.0192(9) 0.0650(9)
C9C C 0.164(1) 0.037(1) -0.035(1)
C2H C 0.0639(9) 0.2542(7) 0.2632(9)
O1H O 0.0364(5) 0.2730(6) 0.3207(6)
C3H C 0.1881(8) 0.3209(8) 0.2001(7)
O2H O 0.2302(6) 0.3644(6) 0.2299(5)
C4H C 0.003(1) 0.237(1) 0.060(1)
C5H C -0.0193(10) 0.2890(8) 0.119(1)
C6H C 0.025(1) 0.353(1) 0.114(1)
C7H C 0.0799(8) 0.3434(9) 0.0549(9)
C8H C 0.0650(8) 0.2718(9) 0.0192(9)
C9H C -0.035(1) 0.164(1) 0.037(1)
#END

data_CSD_CIF_ZIQVUT
_audit_creation_date 2018-12-21
_audit_creation_method CSD-ConQuest-V1
_database_code_CSD ZIQVUT
_database_code_depnum_ccdc_archive 'CCDC 1873736'
_chemical_formula_sum 'C45 H51 Co1 I1 N3 Nb1 O1 P3'
_chemical_formula_moiety
;
C45 H51 Co1 I1 N3 Nb1 O1 P3
;
_journal_coden_Cambridge 9
_journal_volume 58
_journal_year 2019
_journal_page_first 821
_journal_name_full 'Inorg.Chem. '
loop_
_publ_author_name
"B.A.Barden"
"G.Culcu"
"J.P.Krogman"
"M.W.Bezpalko"
"G.P.Hatzis"
"D.A.Dickie"
"B.M.Foxman"
"C.M.Thomas"
_chemical_name_systematic
;
tris[\m-(P,P-diphenyl-N-propan-2-ylphosphinous 
amidato)]-iodo-oxo-niobium-cobalt
;
_cell_volume   8852.272
_exptl_crystal_colour 'blue'
_exptl_crystal_density_diffrn 1.533
_exptl_special_details
;
Air-sensitive,Moisture-sensitive

;
_exptl_crystal_description 'cubes'
_exptl_crystal_preparation 'tetrahydrofuran'
_diffrn_ambient_temperature 120
#These two values have been output from a single CSD field.
_refine_ls_R_factor_gt 0.0251
_refine_ls_wR_factor_gt 0.0251
_symmetry_cell_setting cubic
_symmetry_space_group_name_H-M 'P a -3'
_symmetry_Int_Tables_number 205
loop_
_symmetry_equiv_pos_site_id
_symmetry_equiv_pos_as_xyz
1 x,y,z
2 y,z,x
3 z,x,y
4 1/2-x,-y,1/2+z
5 1/2-y,-z,1/2+x
6 1/2-z,-x,1/2+y
7 1/2+y,1/2-z,-x
8 1/2+z,1/2-x,-y
9 -z,1/2+x,1/2-y
10 -x,1/2+y,1/2-z
11 -y,1/2+z,1/2-x
12 1/2+x,1/2-y,-z
13 -x,-y,-z
14 -y,-z,-x
15 -z,-x,-y
16 -1/2+x,y,-1/2-z
17 -1/2+y,z,-1/2-x
18 -1/2+z,x,-1/2-y
19 -1/2-y,-1/2+z,x
20 -1/2-z,-1/2+x,y
21 z,-1/2-x,-1/2+y
22 x,-1/2-y,-1/2+z
23 y,-1/2-z,-1/2+x
24 -1/2-x,-1/2+y,z
_cell_length_a 20.6864(9)
_cell_length_b 20.6864(9)
_cell_length_c 20.6864(9)
_cell_angle_alpha 90
_cell_angle_beta 90
_cell_angle_gamma 90
_cell_formula_units_Z 8
loop_
_atom_type_symbol
_atom_type_radius_bond
C 0.68
H 0.23
Co 1.26
I 1.40
N 0.68
Nb 1.64
O 0.68
P 1.05
loop_
_atom_site_label
_atom_site_type_symbol
_atom_site_fract_x
_atom_site_fract_y
_atom_site_fract_z
Nb1 Nb 0.906454(7) 0.406454(7) 0.093546(7)
I1 I 0.751105(6) 0.251105(6) 0.248895(6)
Co1 Co 0.822227(11) 0.322227(11) 0.177773(11)
P1 P 0.83984(2) 0.28057(2) 0.07851(2)
O1 O 0.95413(7) 0.45413(7) 0.04587(7)
N1 N 0.88695(7) 0.33045(7) 0.03456(7)
C1 C 0.76550(9) 0.26047(8) 0.03486(9)
C2 C 0.76433(10) 0.23834(11) -0.02908(10)
C3 C 0.70568(11) 0.22557(12) -0.05949(10)
C4 C 0.64816(10) 0.23331(11) -0.02610(11)
C5 C 0.64876(9) 0.25245(10) 0.03766(11)
C6 C 0.70719(9) 0.26656(9) 0.06783(9)
C7 C 0.88261(9) 0.20332(9) 0.07824(8)
C8 C 0.95022(9) 0.20254(9) 0.07922(9)
C9 C 0.98322(9) 0.14416(10) 0.08348(9)
C10 C 0.94977(10) 0.08669(10) 0.08709(10)
C11 C 0.88289(10) 0.08686(9) 0.08719(9)
C12 C 0.84914(9) 0.14495(9) 0.08272(9)
C13 C 0.90865(9) 0.3166(1) -0.03278(8)
C14 C 0.87026(11) 0.35675(11) -0.08070(9)
C15 C 0.98093(10) 0.32861(12) -0.04156(10)
H1 H 0.80320 0.23130 -0.05210
H2 H 0.70570 0.21160 -0.10210
H3 H 0.60870 0.22570 -0.04660
H4 H 0.61010 0.25600 0.06070
H5 H 0.70780 0.28020 0.11120
H6 H 0.97340 0.24170 0.07710
H7 H 1.02830 0.14430 0.08500
H8 H 0.97250 0.04780 0.08930
H9 H 0.86050 0.04820 0.09000
H10 H 0.80340 0.14450 0.08230
H11 H 0.90030 0.27050 -0.04080
H12 H 0.88040 0.40150 -0.07360
H13 H 0.88110 0.34580 -0.12480
H14 H 0.82430 0.35100 -0.07440
H15 H 1.00550 0.30410 -0.01110
H16 H 0.99320 0.31450 -0.08440
H17 H 0.99090 0.37400 -0.03690
P1F P 0.78057(2) 0.42149(2) 0.16016(2)
N1F N 0.83045(7) 0.46544(7) 0.11305(7)
C1F C 0.76047(9) 0.46514(8) 0.23450(9)
C2F C 0.73834(10) 0.52908(11) 0.23567(10)
C3F C 0.72557(11) 0.55949(12) 0.29432(10)
C4F C 0.73331(10) 0.52610(11) 0.35184(11)
C5F C 0.75245(9) 0.46234(10) 0.35124(11)
C6F C 0.76656(9) 0.43217(9) 0.29281(9)
C7F C 0.70332(9) 0.42176(9) 0.11739(8)
C8F C 0.70254(9) 0.42078(9) 0.04978(9)
C9F C 0.64416(9) 0.41652(10) 0.01678(9)
C10F C 0.58669(10) 0.41291(10) 0.05023(10)
C11F C 0.58686(10) 0.41281(9) 0.11711(9)
C12F C 0.64495(9) 0.41728(9) 0.15086(9)
C13F C 0.81660(9) 0.53278(10) 0.09135(8)
C14F C 0.85675(11) 0.58070(11) 0.12974(9)
C15F C 0.82861(10) 0.54156(12) 0.01907(10)
H1F H 0.73130 0.55210 0.19680
H2F H 0.71160 0.60210 0.29430
H3F H 0.72570 0.54660 0.39130
H4F H 0.75600 0.43930 0.38990
H5F H 0.78020 0.38880 0.29220
H6F H 0.74170 0.42290 0.02660
H7F H 0.64430 0.41500 -0.02830
H8F H 0.54780 0.41070 0.02750
H9F H 0.54820 0.41000 0.13950
H10F H 0.64450 0.41770 0.19660
H11F H 0.77050 0.54080 0.09970
H12F H 0.90150 0.57360 0.11960
H13F H 0.84580 0.62480 0.11890
H14F H 0.85100 0.57440 0.17570
H15F H 0.80410 0.51110 -0.00550
H16F H 0.81450 0.58440 0.00680
H17F H 0.87400 0.53690 0.00910
P1H P 0.92149(2) 0.33984(2) 0.21943(2)
N1H N 0.96544(7) 0.38695(7) 0.16955(7)
C1H C 0.96514(9) 0.26550(8) 0.23953(9)
C2H C 1.02908(10) 0.26433(11) 0.26166(10)
C3H C 1.05949(11) 0.20568(12) 0.27443(10)
C4H C 1.0261(1) 0.14816(11) 0.26669(11)
C5H C 0.96234(9) 0.14876(10) 0.24755(11)
C6H C 0.93217(9) 0.20719(9) 0.23344(9)
C7H C 0.92176(9) 0.38261(9) 0.29668(8)
C8H C 0.92078(9) 0.45022(9) 0.29746(9)
C9H C 0.91652(9) 0.48322(10) 0.35584(9)
C10H C 0.91291(10) 0.44977(10) 0.41331(10)
C11H C 0.91281(10) 0.38289(9) 0.41314(9)
C12H C 0.91728(9) 0.34914(9) 0.35505(9)
C13H C 1.03278(9) 0.40865(10) 0.18340(8)
C14H C 1.08070(11) 0.37026(11) 0.14325(9)
C15H C 1.04156(10) 0.48093(12) 0.17139(10)
H1H H 1.05210 0.30320 0.26870
H2H H 1.10210 0.20570 0.28840
H3H H 1.04660 0.10870 0.27430
H4H H 0.93930 0.11010 0.24400
H5H H 0.88880 0.20780 0.21980
H6H H 0.92290 0.47340 0.25830
H7H H 0.91500 0.52830 0.35570
H8H H 0.91070 0.47250 0.45220
H9H H 0.91000 0.36050 0.45180
H10H H 0.91770 0.30340 0.35550
H11H H 1.04080 0.40030 0.22950
H12H H 1.07360 0.38040 0.09850
H13H H 1.12480 0.38110 0.15420
H14H H 1.07440 0.32430 0.14900
H15H H 1.01110 0.50550 0.19590
H16H H 1.08440 0.49320 0.18550
H17H H 1.03690 0.49090 0.12600
#END

data_CSD_CIF_ZIQWAA
_audit_creation_date 2018-12-21
_audit_creation_method CSD-ConQuest-V1
_database_code_CSD ZIQWAA
_database_code_depnum_ccdc_archive 'CCDC 1873737'
_chemical_formula_sum 'C45 H51 Cl1 N3 Nb1 Ni1 O1 P3'
_chemical_formula_moiety
;
C45 H51 Cl1 N3 Nb1 Ni1 O1 P3
;
_journal_coden_Cambridge 9
_journal_volume 58
_journal_year 2019
_journal_page_first 821
_journal_name_full 'Inorg.Chem. '
loop_
_publ_author_name
"B.A.Barden"
"G.Culcu"
"J.P.Krogman"
"M.W.Bezpalko"
"G.P.Hatzis"
"D.A.Dickie"
"B.M.Foxman"
"C.M.Thomas"
_chemical_name_systematic
;
tris[\m-(P,P-diphenyl-N-propan-2-ylphosphinous 
amidato)]-chloro-oxo-niobium-nickel
;
_cell_volume   8778.021
_exptl_crystal_colour 'yellow'
_exptl_crystal_density_diffrn 1.407
_exptl_special_details
;
Air-sensitive,Moisture-sensitive

;
_exptl_crystal_description 'plate'
_exptl_crystal_preparation 'pentane/toluene'
_diffrn_ambient_temperature 150
#These two values have been output from a single CSD field.
_refine_ls_R_factor_gt 0.0243
_refine_ls_wR_factor_gt 0.0243
_symmetry_cell_setting cubic
_symmetry_space_group_name_H-M 'P a -3'
_symmetry_Int_Tables_number 205
loop_
_symmetry_equiv_pos_site_id
_symmetry_equiv_pos_as_xyz
1 x,y,z
2 z,x,y
3 y,z,x
4 1/2-y,-z,1/2+x
5 1/2+z,1/2-x,-y
6 -y,1/2+z,1/2-x
7 1/2-z,-x,1/2+y
8 -z,1/2+x,1/2-y
9 1/2+y,1/2-z,-x
10 1/2-x,-y,1/2+z
11 1/2+x,1/2-y,-z
12 -x,1/2+y,1/2-z
13 -x,-y,-z
14 -z,-x,-y
15 -y,-z,-x
16 -1/2+y,z,-1/2-x
17 -1/2-z,-1/2+x,y
18 y,-1/2-z,-1/2+x
19 -1/2+z,x,-1/2-y
20 z,-1/2-x,-1/2+y
21 -1/2-y,-1/2+z,x
22 -1/2+x,y,-1/2-z
23 -1/2-x,-1/2+y,z
24 x,-1/2-y,-1/2+z
_cell_length_a 20.6284(6)
_cell_length_b 20.6284(6)
_cell_length_c 20.6284(6)
_cell_angle_alpha 90
_cell_angle_beta 90
_cell_angle_gamma 90
_cell_formula_units_Z 8
loop_
_atom_type_symbol
_atom_type_radius_bond
C 0.68
H 0.23
Cl 0.99
N 0.68
Nb 1.64
Ni 1.24
O 0.68
P 1.05
loop_
_atom_site_label
_atom_site_type_symbol
_atom_site_fract_x
_atom_site_fract_y
_atom_site_fract_z
Nb1 Nb 0.90665(2) 0.40665(2) 0.09335(2)
Ni1 Ni 0.82445(2) 0.32445(2) 0.17555(2)
Cl1 Cl 0.76082(2) 0.26082(2) 0.23918(2)
P1 P 0.84094(2) 0.27947(2) 0.07838(2)
O1 O 0.95449(5) 0.45449(5) 0.04551(5)
N1 N 0.88806(5) 0.32990(5) 0.03463(5)
C1 C 0.90974(7) 0.31658(7) -0.03288(6)
H1 H 0.89989 0.27020 -0.04299
C2 C 0.87217(9) 0.35878(9) -0.08018(7)
H2 H 0.82556 0.35257 -0.07338
H3 H 0.88343 0.34658 -0.12469
H4 H 0.88328 0.40441 -0.07298
C3 C 0.98231(8) 0.32696(11) -0.04129(8)
H5 H 0.99300 0.37230 -0.03199
H6 H 0.99472 0.31661 -0.08597
H7 H 1.00593 0.29865 -0.01133
C4 C 0.76618(6) 0.25960(6) 0.03474(7)
C5 C 0.76393(8) 0.24236(9) -0.03062(8)
H8 H 0.80303 0.23827 -0.05461
C6 C 0.70472(9) 0.23112(10) -0.06079(10)
H9 H 0.70336 0.22061 -0.10560
C7 C 0.64788(8) 0.23523(9) -0.02566(10)
H10 H 0.60745 0.22829 -0.04659
C8 C 0.64954(7) 0.24935(8) 0.03956(9)
H11 H 0.61048 0.25043 0.06393
C9 C 0.70861(7) 0.26205(7) 0.06976(8)
H12 H 0.70958 0.27245 0.11461
C10 C 0.88362(6) 0.20227(6) 0.07917(6)
C11 C 0.95140(7) 0.20134(7) 0.08183(7)
H13 H 0.97494 0.24088 0.07999
C12 C 0.98441(7) 0.14291(8) 0.08715(7)
H14 H 1.03044 0.14263 0.08858
C13 C 0.95056(8) 0.08514(7) 0.09036(8)
H15 H 0.97334 0.04526 0.09371
C14 C 0.88326(8) 0.08543(7) 0.08870(8)
H16 H 0.86000 0.04576 0.09128
C15 C 0.84985(7) 0.14384(7) 0.08326(7)
H17 H 0.80381 0.14388 0.08232
P1G P 0.92162(2) 0.34094(2) 0.22053(2)
N1G N 0.96537(5) 0.38806(5) 0.17010(5)
C1G C 1.03288(7) 0.40974(7) 0.18342(6)
H1G H 1.04299 0.39989 0.22980
C2G C 1.08018(9) 0.37217(9) 0.14122(7)
H2G H 1.07338 0.32556 0.14743
H3G H 1.12469 0.38343 0.15342
H4G H 1.07298 0.38328 0.09559
C3G C 1.04129(8) 0.48231(11) 0.17304(8)
H5G H 1.03199 0.49300 0.12770
H6G H 1.08597 0.49472 0.18339
H7G H 1.01133 0.50593 0.20135
C4G C 0.96526(6) 0.26618(6) 0.24040(7)
C5G C 1.03062(8) 0.26393(9) 0.25764(8)
H8G H 1.05461 0.30303 0.26172
C6G C 1.06079(9) 0.20472(10) 0.26888(10)
H9G H 1.10560 0.20336 0.27938
C7G C 1.02566(8) 0.14788(9) 0.26477(10)
H10G H 1.04659 0.10745 0.27171
C8G C 0.96044(7) 0.14954(8) 0.25065(9)
H11G H 0.93607 0.11048 0.24957
C9G C 0.93024(7) 0.20861(7) 0.23795(8)
H12G H 0.88539 0.20958 0.22755
C10G C 0.92083(6) 0.38362(6) 0.29773(6)
C11G C 0.91817(7) 0.45140(7) 0.29866(7)
H13G H 0.92001 0.47494 0.25912
C12G C 0.91285(7) 0.48441(8) 0.35709(7)
H14G H 0.91143 0.53044 0.35737
C13G C 0.90964(8) 0.45056(7) 0.41486(8)
H15G H 0.90629 0.47334 0.45474
C14G C 0.91130(8) 0.38326(7) 0.41457(8)
H16G H 0.90872 0.36000 0.45424
C15G C 0.91674(7) 0.34985(7) 0.35616(7)
H17G H 0.91768 0.30381 0.35612
P1H P 0.77947(2) 0.42162(2) 0.15906(2)
N1H N 0.82990(5) 0.46537(5) 0.11194(5)
C1H C 0.81658(7) 0.53288(7) 0.09026(6)
H1H H 0.77020 0.54299 0.10011
C2H C 0.85878(9) 0.58018(9) 0.12783(7)
H2H H 0.85257 0.57338 0.17444
H3H H 0.84658 0.62469 0.11657
H4H H 0.90441 0.57298 0.11672
C3H C 0.82696(8) 0.54129(11) 0.01769(8)
H5H H 0.87230 0.53199 0.00700
H6H H 0.81661 0.58597 0.00528
H7H H 0.79865 0.51133 -0.00593
C4H C 0.75960(6) 0.46526(6) 0.23382(7)
C5H C 0.74236(8) 0.53062(9) 0.23607(8)
H8H H 0.73828 0.55461 0.19697
C6H C 0.73112(9) 0.56079(10) 0.29528(10)
H9H H 0.72062 0.60560 0.29664
C7H C 0.73523(8) 0.52566(9) 0.35212(10)
H10H H 0.72829 0.54659 0.39255
C8H C 0.74935(7) 0.46044(8) 0.35046(9)
H11H H 0.75043 0.43607 0.38952
C9H C 0.76205(7) 0.43024(7) 0.29139(8)
H12H H 0.77245 0.38539 0.29042
C10H C 0.70227(6) 0.42083(6) 0.11638(6)
C11H C 0.70134(7) 0.41817(7) 0.04860(7)
H13H H 0.74088 0.42001 0.02506
C12H C 0.64291(7) 0.41285(8) 0.01559(7)
H14H H 0.64263 0.41142 -0.03044
C13H C 0.58514(8) 0.40964(7) 0.04944(8)
H15H H 0.54526 0.40629 0.02666
C14H C 0.58543(8) 0.41130(7) 0.11674(8)
H16H H 0.54576 0.40872 0.14000
C15H C 0.64384(7) 0.41674(7) 0.15015(7)
H17H H 0.64388 0.41768 0.19619
#END

data_CSD_CIF_ZIQWEE
_audit_creation_date 2018-12-21
_audit_creation_method CSD-ConQuest-V1
_database_code_CSD ZIQWEE
_database_code_depnum_ccdc_archive 'CCDC 1873738'
_chemical_formula_sum 'C45 H51 Cu1 I1 N3 Nb1 O1 P3'
_chemical_formula_moiety
;
C45 H51 Cu1 I1 N3 Nb1 O1 P3
;
_journal_coden_Cambridge 9
_journal_volume 58
_journal_year 2019
_journal_page_first 821
_journal_name_full 'Inorg.Chem. '
loop_
_publ_author_name
"B.A.Barden"
"G.Culcu"
"J.P.Krogman"
"M.W.Bezpalko"
"G.P.Hatzis"
"D.A.Dickie"
"B.M.Foxman"
"C.M.Thomas"
_chemical_name_systematic
;
tris[\m-(P,P-diphenyl-N-propan-2-ylphosphinous 
amidato)]-iodo-oxo-niobium-copper
;
_cell_volume   8907.847
_exptl_crystal_colour 'colorless'
_exptl_crystal_density_diffrn 1.53
_exptl_special_details
;
Air-sensitive,Moisture-sensitive

;
_exptl_crystal_description 'prism'
_exptl_crystal_preparation 'dichloromethane'
_diffrn_ambient_temperature 120
#These two values have been output from a single CSD field.
_refine_ls_R_factor_gt 0.0304
_refine_ls_wR_factor_gt 0.0304
_symmetry_cell_setting cubic
_symmetry_space_group_name_H-M 'P a -3'
_symmetry_Int_Tables_number 205
loop_
_symmetry_equiv_pos_site_id
_symmetry_equiv_pos_as_xyz
1 x,y,z
2 y,z,x
3 z,x,y
4 1/2-x,-y,1/2+z
5 1/2-y,-z,1/2+x
6 1/2-z,-x,1/2+y
7 1/2+y,1/2-z,-x
8 1/2+z,1/2-x,-y
9 -z,1/2+x,1/2-y
10 -x,1/2+y,1/2-z
11 -y,1/2+z,1/2-x
12 1/2+x,1/2-y,-z
13 -x,-y,-z
14 -y,-z,-x
15 -z,-x,-y
16 -1/2+x,y,-1/2-z
17 -1/2+y,z,-1/2-x
18 -1/2+z,x,-1/2-y
19 -1/2-y,-1/2+z,x
20 -1/2-z,-1/2+x,y
21 z,-1/2-x,-1/2+y
22 x,-1/2-y,-1/2+z
23 y,-1/2-z,-1/2+x
24 -1/2-x,-1/2+y,z
_cell_length_a 20.7296(8)
_cell_length_b 20.7296(8)
_cell_length_c 20.7296(8)
_cell_angle_alpha 90
_cell_angle_beta 90
_cell_angle_gamma 90
_cell_formula_units_Z 8
loop_
_atom_type_symbol
_atom_type_radius_bond
C 0.68
H 0.23
Cu 1.32
I 1.40
N 0.68
Nb 1.64
O 0.68
P 1.05
loop_
_atom_site_label
_atom_site_type_symbol
_atom_site_fract_x
_atom_site_fract_y
_atom_site_fract_z
I1 I 0.252707(8) 0.252707(8) 0.252707(8)
Nb1 Nb 0.406684(10) 0.406684(10) 0.406684(10)
Cu1 Cu 0.324856(14) 0.324856(14) 0.324856(14)
P1 P 0.34065(3) 0.27852(3) 0.42325(3)
O1 O 0.45413(9) 0.45413(9) 0.45413(9)
N1 N 0.38803(10) 0.32996(10) 0.46507(10)
C1 C 0.26676(12) 0.25952(12) 0.46711(13)
C2 C 0.26498(14) 0.23803(15) 0.53146(14)
C3 C 0.20611(16) 0.22632(16) 0.56167(15)
C4 C 0.14917(15) 0.23387(15) 0.52759(16)
C5 C 0.15035(13) 0.25225(14) 0.46361(15)
C6 C 0.20881(13) 0.26569(13) 0.43365(14)
C7 C 0.38364(12) 0.20201(12) 0.42341(12)
C8 C 0.35006(13) 0.14377(13) 0.41923(13)
C9 C 0.38394(15) 0.08563(13) 0.41362(14)
C10 C 0.45079(15) 0.08582(14) 0.41227(14)
C11 C 0.48396(14) 0.14322(14) 0.41577(14)
C12 C 0.45082(13) 0.20130(13) 0.42112(12)
C13 C 0.40980(13) 0.31690(14) 0.53255(12)
C14 C 0.37148(15) 0.35773(16) 0.57970(14)
C15 C 0.48197(14) 0.32914(18) 0.54093(15)
H1 H 0.30390 0.23120 0.55450
H2 H 0.20550 0.21400 0.60570
H3 H 0.10980 0.22630 0.54820
H4 H 0.11170 0.25550 0.44050
H5 H 0.20920 0.27840 0.39020
H6 H 0.30440 0.14300 0.42110
H7 H 0.36100 0.04680 0.41110
H8 H 0.47280 0.04750 0.40880
H9 H 0.52830 0.14360 0.41430
H10 H 0.47330 0.24020 0.42150
H11 H 0.40070 0.27110 0.54220
H12 H 0.38160 0.40260 0.57060
H13 H 0.32570 0.35050 0.57300
H14 H 0.38300 0.34640 0.62240
H15 H 0.49530 0.31600 0.58350
H16 H 0.50560 0.30570 0.51010
H17 H 0.49190 0.37460 0.53580
P1A P 0.27852(3) 0.42325(3) 0.34065(3)
N1A N 0.32996(10) 0.46507(10) 0.38803(10)
C1A C 0.25952(12) 0.46711(12) 0.26676(13)
C2A C 0.23803(14) 0.53146(15) 0.26498(14)
C3A C 0.22632(16) 0.56167(16) 0.20611(15)
C4A C 0.23387(15) 0.52759(15) 0.14917(16)
C5A C 0.25225(13) 0.46361(14) 0.15035(15)
C6A C 0.26569(13) 0.43365(13) 0.20881(14)
C7A C 0.20201(12) 0.42341(12) 0.38364(12)
C8A C 0.14377(13) 0.41923(13) 0.35006(13)
C9A C 0.08563(15) 0.41362(13) 0.38394(14)
C10A C 0.08582(15) 0.41227(14) 0.45079(14)
C11A C 0.14322(14) 0.41577(14) 0.48396(14)
C12A C 0.20130(13) 0.42112(13) 0.45082(12)
C13A C 0.31690(13) 0.53255(14) 0.40980(12)
C14A C 0.35773(15) 0.57970(16) 0.37148(14)
C15A C 0.32914(14) 0.54093(18) 0.48197(15)
H1A H 0.23120 0.55450 0.30390
H2A H 0.21400 0.60570 0.20550
H3A H 0.22630 0.54820 0.10980
H4A H 0.25550 0.44050 0.11170
H5A H 0.27840 0.39020 0.20920
H6A H 0.14300 0.42110 0.30440
H7A H 0.04680 0.41110 0.36100
H8A H 0.04750 0.40880 0.47280
H9A H 0.14360 0.41430 0.52830
H10A H 0.24020 0.42150 0.47330
H11A H 0.27110 0.54220 0.40070
H12A H 0.40260 0.57060 0.38160
H13A H 0.35050 0.57300 0.32570
H14A H 0.34640 0.62240 0.38300
H15A H 0.31600 0.58350 0.49530
H16A H 0.30570 0.51010 0.50560
H17A H 0.37460 0.53580 0.49190
P1B P 0.42325(3) 0.34065(3) 0.27852(3)
N1B N 0.46507(10) 0.38803(10) 0.32996(10)
C1B C 0.46711(12) 0.26676(12) 0.25952(13)
C2B C 0.53146(14) 0.26498(15) 0.23803(14)
C3B C 0.56167(16) 0.20611(16) 0.22632(15)
C4B C 0.52759(15) 0.14917(15) 0.23387(16)
C5B C 0.46361(13) 0.15035(14) 0.25225(15)
C6B C 0.43365(13) 0.20881(13) 0.26569(14)
C7B C 0.42341(12) 0.38364(12) 0.20201(12)
C8B C 0.41923(13) 0.35006(13) 0.14377(13)
C9B C 0.41362(15) 0.38394(13) 0.08563(14)
C10B C 0.41227(15) 0.45079(14) 0.08582(14)
C11B C 0.41577(14) 0.48396(14) 0.14322(14)
C12B C 0.42112(13) 0.45082(13) 0.20130(12)
C13B C 0.53255(13) 0.40980(14) 0.31690(12)
C14B C 0.57970(15) 0.37148(16) 0.35773(14)
C15B C 0.54093(14) 0.48197(18) 0.32914(15)
H1B H 0.55450 0.30390 0.23120
H2B H 0.60570 0.20550 0.21400
H3B H 0.54820 0.10980 0.22630
H4B H 0.44050 0.11170 0.25550
H5B H 0.39020 0.20920 0.27840
H6B H 0.42110 0.30440 0.14300
H7B H 0.41110 0.36100 0.04680
H8B H 0.40880 0.47280 0.04750
H9B H 0.41430 0.52830 0.14360
H10B H 0.42150 0.47330 0.24020
H11B H 0.54220 0.40070 0.27110
H12B H 0.57060 0.38160 0.40260
H13B H 0.57300 0.32570 0.35050
H14B H 0.62240 0.38300 0.34640
H15B H 0.58350 0.49530 0.31600
H16B H 0.51010 0.50560 0.30570
H17B H 0.53580 0.49190 0.37460
#END

data_CSD_CIF_ZITYUW
_audit_creation_date 1996-04-05
_audit_creation_method CSD-ConQuest-V1
_database_code_CSD ZITYUW
_database_code_depnum_ccdc_archive 'CCDC 126178'
_chemical_formula_sum 'C14 H37 Co1 P4'
_chemical_formula_moiety
;
C14 H37 Co1 P4
;
_journal_coeditor_code "IUCr BK1075"
_journal_coden_Cambridge 591
_journal_volume 52
_journal_year 1996
_journal_page_first 80
_journal_name_full 'Acta Crystallogr.,Sect.C:Cryst.Struct.Commun. '
loop_
_publ_author_name
"G.Stringer"
"N.J.Taylor"
"T.B.Marder"
_chemical_name_systematic
;
Ethynyl-tetrakis(trimethylphosphine)-cobalt(i)
;
_cell_volume   4264.138
_exptl_crystal_colour 'brown'
_exptl_crystal_density_diffrn 1.209
_exptl_special_details
;
Sg published as Pa-3

;
_diffrn_ambient_temperature 170
#These two values have been output from a single CSD field.
_refine_ls_R_factor_gt 0.0331
_refine_ls_wR_factor_gt 0.0331
_symmetry_cell_setting cubic
_symmetry_space_group_name_H-M 'P a 3'
_symmetry_Int_Tables_number 205
loop_
_symmetry_equiv_pos_site_id
_symmetry_equiv_pos_as_xyz
1 x,y,z
2 1/2-x,-y,1/2+z
3 1/2+x,1/2-y,-z
4 z,x,y
5 -x,1/2+y,1/2-z
6 1/2-z,-x,1/2+y
7 1/2+z,1/2-x,-y
8 -z,1/2+x,1/2-y
9 y,z,x
10 1/2+y,1/2-z,-x
11 -y,1/2+z,1/2-x
12 1/2-y,-z,1/2+x
13 -x,-y,-z
14 -1/2+x,y,-1/2-z
15 -1/2-x,-1/2+y,z
16 -z,-x,-y
17 x,-1/2-y,-1/2+z
18 -1/2+z,x,-1/2-y
19 -1/2-z,-1/2+x,y
20 z,-1/2-x,-1/2+y
21 -y,-z,-x
22 -1/2-y,-1/2+z,x
23 y,-1/2-z,-1/2+x
24 -1/2+y,z,-1/2-x
_cell_length_a 16.216(3)
_cell_length_b 16.216(3)
_cell_length_c 16.216(3)
_cell_angle_alpha 90
_cell_angle_beta 90
_cell_angle_gamma 90
_cell_formula_units_Z 8
loop_
_atom_type_symbol
_atom_type_radius_bond
C 0.68
H 0.23
Co 1.33
P 1.05
loop_
_atom_site_label
_atom_site_type_symbol
_atom_site_fract_x
_atom_site_fract_y
_atom_site_fract_z
Co1 Co 0.18024(2) 0.18024 0.18024
P1 P 0.10304(5) 0.10304 0.10304
P2 P 0.29190(5) 0.17243(6) 0.10468(6)
C1 C 0.2475(2) 0.24750 0.24750
C2 C 0.2897(3) 0.28970 0.28970
C3 C 0.0861(3) 0.1342(3) -0.0043(3)
C4 C 0.3063(3) 0.1072(3) 0.0130(3)
C5 C 0.3282(3) 0.2698(3) 0.0606(3)
C6 C 0.3854(3) 0.1399(3) 0.1576(3)
H1 H 0.3174(25) 0.3174(25) 0.3174(25)
H2 H 0.0582(26) 0.0950(26) -0.0362(26)
H3 H 0.1314(27) 0.1472(26) -0.0307(27)
H4 H 0.0574(27) 0.1834(29) -0.0079(26)
H5 H 0.2684(24) 0.1227(23) -0.0270(23)
H6 H 0.2994(28) 0.0506(30) 0.0241(29)
H7 H 0.3589(24) 0.1143(22) -0.0085(23)
H8 H 0.3809(25) 0.2580(25) 0.0362(24)
H9 H 0.2847(26) 0.2867(26) 0.0168(27)
H10 H 0.3374(28) 0.3057(27) 0.1073(27)
H11 H 0.3778(27) 0.0860(29) 0.1780(26)
H12 H 0.4333(25) 0.1450(23) 0.1263(24)
H13 H 0.3922(26) 0.1731(27) 0.2056(27)
P2C P 0.10468(5) 0.29190(6) 0.17243(6)
P2H P 0.17243(5) 0.10468(6) 0.29190(6)
C3C C -0.0043(3) 0.0861(3) 0.1342(3)
C3H C 0.1342(3) -0.0043(3) 0.0861(3)
C4C C 0.0130(3) 0.3063(3) 0.1072(3)
C5C C 0.0606(3) 0.3282(3) 0.2698(3)
C6C C 0.1576(3) 0.3854(3) 0.1399(3)
C4H C 0.1072(3) 0.0130(3) 0.3063(3)
C5H C 0.2698(3) 0.0606(3) 0.3282(3)
C6H C 0.1399(3) 0.1576(3) 0.3854(3)
H2C H -0.0362(26) 0.0582(26) 0.0950(26)
H3C H -0.0307(27) 0.1314(26) 0.1472(27)
H4C H -0.0079(27) 0.0574(29) 0.1834(26)
H2H H 0.0950(26) -0.0362(26) 0.0582(26)
H3H H 0.1472(27) -0.0307(26) 0.1314(27)
H4H H 0.1834(27) -0.0079(29) 0.0574(26)
H5C H -0.0270(24) 0.2684(23) 0.1227(23)
H6C H 0.0241(28) 0.2994(30) 0.0506(29)
H7C H -0.0085(24) 0.3589(22) 0.1143(23)
H8C H 0.0362(25) 0.3809(25) 0.2580(24)
H9C H 0.0168(26) 0.2847(26) 0.2867(27)
H10C H 0.1073(28) 0.3374(27) 0.3057(27)
H11C H 0.1780(27) 0.3778(29) 0.0860(26)
H12C H 0.1263(25) 0.4333(23) 0.1450(24)
H13C H 0.2056(26) 0.3922(27) 0.1731(27)
H5H H 0.1227(24) -0.0270(23) 0.2684(23)
H6H H 0.0506(28) 0.0241(30) 0.2994(29)
H7H H 0.1143(24) -0.0085(22) 0.3589(23)
H8H H 0.2580(25) 0.0362(25) 0.3809(24)
H9H H 0.2867(26) 0.0168(26) 0.2847(27)
H10H H 0.3057(28) 0.1073(27) 0.3374(27)
H11H H 0.0860(27) 0.1780(29) 0.3778(26)
H12H H 0.1450(25) 0.1263(23) 0.4333(24)
H13H H 0.1731(26) 0.2056(27) 0.3922(27)
#END

data_CSD_CIF_ZUKBEM
_audit_creation_date 1996-10-03
_audit_creation_method CSD-ConQuest-V1
_database_code_CSD ZUKBEM
_database_code_depnum_ccdc_archive 'CCDC 1316348'
_chemical_formula_sum 'C27 H45 Cl1 N6 Si3 Zr1'
_chemical_formula_moiety
;
C27 H45 Cl1 N6 Si3 Zr1
;
_journal_coden_Cambridge 579
_journal_volume 15
_journal_year 1996
_journal_page_first 1071
_journal_name_full 'Organometallics '
loop_
_publ_author_name
"R.Kempe"
"S.Brenner"
"P.Arndt"
_chemical_name_systematic
;
Chloro-tris(4-methyl-2-((trimethylsilyl)amino)pyridine-N,N')-zirconium(iv)
;
_cell_volume   7327.384
_exptl_crystal_colour 'colorless'
_exptl_crystal_density_diffrn 1.203
_diffrn_ambient_temperature 173
#These two values have been output from a single CSD field.
_refine_ls_R_factor_gt 0.0323
_refine_ls_wR_factor_gt 0.0323
_symmetry_cell_setting cubic
_symmetry_space_group_name_H-M 'P a 3'
_symmetry_Int_Tables_number 205
loop_
_symmetry_equiv_pos_site_id
_symmetry_equiv_pos_as_xyz
1 x,y,z
2 1/2-x,-y,1/2+z
3 1/2+x,1/2-y,-z
4 z,x,y
5 -x,1/2+y,1/2-z
6 1/2-z,-x,1/2+y
7 1/2+z,1/2-x,-y
8 -z,1/2+x,1/2-y
9 y,z,x
10 1/2+y,1/2-z,-x
11 -y,1/2+z,1/2-x
12 1/2-y,-z,1/2+x
13 -x,-y,-z
14 -1/2+x,y,-1/2-z
15 -1/2-x,-1/2+y,z
16 -z,-x,-y
17 x,-1/2-y,-1/2+z
18 -1/2+z,x,-1/2-y
19 -1/2-z,-1/2+x,y
20 z,-1/2-x,-1/2+y
21 -y,-z,-x
22 -1/2-y,-1/2+z,x
23 y,-1/2-z,-1/2+x
24 -1/2+y,z,-1/2-x
_cell_length_a 19.423(2)
_cell_length_b 19.423(2)
_cell_length_c 19.423(2)
_cell_angle_alpha 90
_cell_angle_beta 90
_cell_angle_gamma 90
_cell_formula_units_Z 8
loop_
_atom_type_symbol
_atom_type_radius_bond
C 0.68
H 0.23
Cl 0.99
N 0.68
Si 1.20
Zr 1.56
loop_
_atom_site_label
_atom_site_type_symbol
_atom_site_fract_x
_atom_site_fract_y
_atom_site_fract_z
Zr1 Zr 0.8780(1) 0.3780(1) 0.1220(1)
Cl1 Cl 0.8032(1) 0.3032(1) 0.1968(1)
Si1 Si 0.9143(1) 0.1974(1) 0.0832(1)
N1 N 0.9365(1) 0.2833(1) 0.0988(1)
N2 N 0.9968(1) 0.3821(1) 0.1084(1)
C1 C 1.0010(2) 0.3121(2) 0.1023(2)
C2 C 1.0668(2) 0.2792(2) 0.1033(2)
C3 C 1.1261(2) 0.3187(2) 0.1108(2)
C4 C 1.1965(2) 0.2844(2) 0.1131(2)
C5 C 1.1195(2) 0.3913(2) 0.1170(2)
C6 C 1.0549(2) 0.4203(2) 0.1162(2)
C7 C 0.9723(2) 0.1565(2) 0.0171(2)
C8 C 0.8251(2) 0.1974(2) 0.0472(2)
C9 C 0.9200(2) 0.1470(2) 0.1652(2)
H1 H 1.0700(2) 0.2306(2) 0.0987(2)
H2 H 1.2322(2) 0.3196(2) 0.1186(2)
H3 H 1.2042(2) 0.2592(2) 0.0701(2)
H4 H 1.1983(2) 0.2523(2) 0.1520(2)
H5 H 1.1593(2) 0.4195(2) 0.1216(2)
H6 H 1.0507(2) 0.4687(2) 0.1213(2)
H7 H 1.0196(2) 0.1556(2) 0.0345(2)
H8 H 0.9705(2) 0.1832(2) -0.0257(2)
H9 H 0.9568(2) 0.1093(2) 0.0081(2)
H10 H 0.8243(2) 0.2242(2) 0.0045(2)
H11 H 0.7935(2) 0.2181(2) 0.0807(2)
H12 H 0.8109(2) 0.1500(2) 0.0376(2)
H13 H 0.9674(2) 0.1483(2) 0.1824(2)
H14 H 0.9065(2) 0.0992(2) 0.1565(2)
H15 H 0.8891(2) 0.1673(2) 0.1996(2)
N1G N 0.9012(1) 0.4365(1) 0.2167(1)
Si1G Si 0.9168(1) 0.4143(1) 0.3026(1)
C7G C 0.9829(2) 0.4723(2) 0.3435(2)
H7G H 0.9655(2) 0.5196(2) 0.3444(2)
H8G H 1.0257(2) 0.4705(2) 0.3168(2)
H9G H 0.9919(2) 0.4568(2) 0.3907(2)
C8G C 0.9528(2) 0.3251(2) 0.3026(2)
H10G H 0.9955(2) 0.3243(2) 0.2758(2)
H11G H 0.9193(2) 0.2935(2) 0.2819(2)
H12G H 0.9624(2) 0.3109(2) 0.3500(2)
C9G C 0.8348(2) 0.4200(2) 0.3530(2)
H13G H 0.8176(2) 0.4674(2) 0.3517(2)
H14G H 0.8435(2) 0.4065(2) 0.4008(2)
H15G H 0.8004(2) 0.3891(2) 0.3327(2)
C1G C 0.8977(2) 0.5010(2) 0.1879(2)
N2G N 0.8916(1) 0.4968(1) 0.1179(1)
N1I N 0.7833(1) 0.4012(1) 0.0635(1)
Si1I Si 0.6974(1) 0.4168(1) 0.0857(1)
C7I C 0.6565(2) 0.4829(2) 0.0277(2)
H7I H 0.6556(2) 0.4655(2) -0.0196(2)
H8I H 0.6832(2) 0.5257(2) 0.0295(2)
H9I H 0.6093(2) 0.4919(2) 0.0432(2)
C8I C 0.6974(2) 0.4528(2) 0.1749(2)
H10I H 0.7242(2) 0.4955(2) 0.1757(2)
H11I H 0.7181(2) 0.4193(2) 0.2065(2)
H12I H 0.6500(2) 0.4624(2) 0.1891(2)
C9I C 0.6470(2) 0.3348(2) 0.0800(2)
H13I H 0.6483(2) 0.3176(2) 0.0326(2)
H14I H 0.5992(2) 0.3435(2) 0.0935(2)
H15I H 0.6673(2) 0.3004(2) 0.1109(2)
C1I C 0.8121(2) 0.3977(2) -0.0010(2)
N2I N 0.8821(1) 0.3916(1) 0.0032(1)
C6I C 0.9203(2) 0.3838(2) -0.0549(2)
C5I C 0.8913(2) 0.3830(2) -0.1195(2)
C3I C 0.8187(2) 0.3892(2) -0.1261(2)
C2I C 0.7792(2) 0.3967(2) -0.0668(2)
H1I H 0.7306(2) 0.4013(2) -0.0700(2)
C4I C 0.7844(2) 0.3869(2) -0.1965(2)
H2I H 0.8196(2) 0.3814(2) -0.2322(2)
H3I H 0.7592(2) 0.4299(2) -0.2042(2)
H4I H 0.7523(2) 0.3480(2) -0.1983(2)
H5I H 0.9195(2) 0.3784(2) -0.1593(2)
H6I H 0.9687(2) 0.3787(2) -0.0507(2)
C6G C 0.8838(2) 0.5549(2) 0.0797(2)
C5G C 0.8830(2) 0.6195(2) 0.1087(2)
C3G C 0.8892(2) 0.6261(2) 0.1813(2)
C2G C 0.8967(2) 0.5668(2) 0.2208(2)
H1G H 0.9013(2) 0.5700(2) 0.2694(2)
C4G C 0.8869(2) 0.6965(2) 0.2156(2)
H2G H 0.8814(2) 0.7322(2) 0.1804(2)
H3G H 0.9299(2) 0.7042(2) 0.2408(2)
H4G H 0.8480(2) 0.6983(2) 0.2477(2)
H5G H 0.8784(2) 0.6593(2) 0.0805(2)
H6G H 0.8787(2) 0.5507(2) 0.0313(2)
#END

data_CSD_CIF_ZZZWOU01
_audit_creation_date 1990-01-09
_audit_creation_method CSD-ConQuest-V1
_database_code_CSD ZZZWOU01
_database_code_depnum_ccdc_archive 'CCDC 1321162'
_chemical_formula_sum 'C6 H12 N6'
_chemical_formula_moiety
;
C6 H12 N6
;
_journal_coden_Cambridge 179
_journal_volume 28
_journal_year 1989
_journal_page_first 90
_journal_name_full 'Angew.Chem.,Int.Ed. '
loop_
_publ_author_name
"D.A.Dixon"
"J.C.Calabrese"
"J.S.Miller"
_chemical_name_systematic
;
Hexa-aminobenzene
;
_chemical_name_common
;
Teaching Subset: Fundamental Chemistry, Symmetry
;
_cell_volume    776.658
_exptl_crystal_colour 'gold'
_exptl_crystal_density_diffrn 1.439
_diffrn_ambient_temperature 203.15
#These two values have been output from a single CSD field.
_refine_ls_R_factor_gt 0.025
_refine_ls_wR_factor_gt 0.025
_symmetry_cell_setting cubic
_symmetry_space_group_name_H-M 'P a 3'
_symmetry_Int_Tables_number 205
loop_
_symmetry_equiv_pos_site_id
_symmetry_equiv_pos_as_xyz
1 x,y,z
2 z,x,y
3 y,z,x
4 -x,1/2+y,1/2-z
5 -z,1/2+x,1/2-y
6 -y,1/2+z,1/2-x
7 1/2-x,-y,1/2+z
8 1/2-z,-x,1/2+y
9 1/2-y,-z,1/2+x
10 1/2+x,1/2-y,-z
11 1/2+z,1/2-x,-y
12 1/2+y,1/2-z,-x
13 -x,-y,-z
14 -z,-x,-y
15 -y,-z,-x
16 x,-1/2-y,-1/2+z
17 z,-1/2-x,-1/2+y
18 y,-1/2-z,-1/2+x
19 -1/2+x,y,-1/2-z
20 -1/2+z,x,-1/2-y
21 -1/2+y,z,-1/2-x
22 -1/2-x,-1/2+y,z
23 -1/2-z,-1/2+x,y
24 -1/2-y,-1/2+z,x
_cell_length_a 9.192(4)
_cell_length_b 9.192(4)
_cell_length_c 9.192(4)
_cell_angle_alpha 90
_cell_angle_beta 90
_cell_angle_gamma 90
_cell_formula_units_Z 4
loop_
_atom_type_symbol
_atom_type_radius_bond
C 0.68
H 0.23
N 0.68
loop_
_atom_site_label
_atom_site_type_symbol
_atom_site_fract_x
_atom_site_fract_y
_atom_site_fract_z
N1 N 0.4709(7) 0.2138(9) 0.2168(7)
C1 C 0.4902(11) 0.1010(8) 0.1111(7)
H1 H 0.5540(62) 0.2615(60) 0.2355(59)
H2 H 0.4307(64) 0.1894(80) 0.2952(74)
C1T C 0.6010(11) 0.1111(8) 0.0098(7)
C1V C 0.3889(11) -0.0098(8) 0.1010(7)
N1T N 0.7138(7) 0.2168(9) 0.0291(7)
C1J C 0.6111(11) 0.0098(8) -0.1010(7)
N1V N 0.2832(7) -0.0291(9) 0.2138(7)
C1H C 0.3990(11) -0.1111(8) -0.0098(7)
H1T H 0.7615(62) 0.2355(60) -0.0540(59)
H2T H 0.6894(64) 0.2952(80) 0.0693(74)
N1J N 0.7168(7) 0.0291(9) -0.2138(7)
C1L C 0.5098(11) -0.1010(8) -0.1111(7)
H1V H 0.2645(62) 0.054(6) 0.2615(59)
H2V H 0.2048(64) -0.0693(80) 0.1894(74)
N1H N 0.2862(7) -0.2168(9) -0.0291(7)
H1J H 0.7355(62) -0.054(6) -0.2615(59)
H2J H 0.7952(64) 0.0693(80) -0.1894(74)
N1L N 0.5291(7) -0.2138(9) -0.2168(7)
H1H H 0.2385(62) -0.2355(60) 0.0540(59)
H2H H 0.3106(64) -0.2952(80) -0.0693(74)
H1L H 0.4460(62) -0.2615(60) -0.2355(59)
H2L H 0.5693(64) -0.1894(80) -0.2952(74)
#END

data_CSD_CIF_ZZZWQS01
_audit_creation_date 2001-05-10
_audit_creation_method CSD-ConQuest-V1
_database_code_CSD ZZZWQS01
_database_code_depnum_ccdc_archive 'CCDC 154446'
_chemical_formula_sum 'C60 H108 Co8 O26'
_chemical_formula_moiety
;
C60 H108 Co8 O26
;
_journal_coden_Cambridge 95
_journal_year 2000
_journal_page_first 960
_journal_name_full 'Izv.Akad.Nauk SSSR,Ser.Khim.(Russ.)(Russ.Chem.Bull.) '
loop_
_publ_author_name
"A.A.Sidorov"
"I.G.Fomina"
"M.O.Ponina"
"G.G.Aleksandrov"
"S.E.Nefedov"
"I.L.Eremenko"
"I.I.Moiseev"
_chemical_name_systematic
;
bis(\m~4~-Oxo)-hexakis(\m~3~-pivalato-O,O,O')-hexakis(\m~2~-pivalato-O,O')-oct
a-cobalt(ii)
;
_cell_volume   8176.969
_exptl_crystal_colour 'blue'
_diffrn_ambient_temperature 200
#These two values have been output from a single CSD field.
_refine_ls_R_factor_gt 0.0495
_refine_ls_wR_factor_gt 0.0495
_symmetry_cell_setting cubic
_symmetry_space_group_name_H-M 'P a 3'
_symmetry_Int_Tables_number 205
loop_
_symmetry_equiv_pos_site_id
_symmetry_equiv_pos_as_xyz
1 x,y,z
2 1/2-x,-y,1/2+z
3 1/2+x,1/2-y,-z
4 z,x,y
5 -x,1/2+y,1/2-z
6 1/2-z,-x,1/2+y
7 1/2+z,1/2-x,-y
8 -z,1/2+x,1/2-y
9 y,z,x
10 1/2+y,1/2-z,-x
11 -y,1/2+z,1/2-x
12 1/2-y,-z,1/2+x
13 -x,-y,-z
14 -1/2+x,y,-1/2-z
15 -1/2-x,-1/2+y,z
16 -z,-x,-y
17 x,-1/2-y,-1/2+z
18 -1/2+z,x,-1/2-y
19 -1/2-z,-1/2+x,y
20 z,-1/2-x,-1/2+y
21 -y,-z,-x
22 -1/2-y,-1/2+z,x
23 y,-1/2-z,-1/2+x
24 -1/2+y,z,-1/2-x
_cell_length_a 20.1464(2)
_cell_length_b 20.1464(2)
_cell_length_c 20.1464(2)
_cell_angle_alpha 90
_cell_angle_beta 90
_cell_angle_gamma 90
_cell_formula_units_Z 4
loop_
_atom_type_symbol
_atom_type_radius_bond
C 0.68
H 0.23
Co 1.32
O 0.68
loop_
_atom_site_label
_atom_site_type_symbol
_atom_site_fract_x
_atom_site_fract_y
_atom_site_fract_z
Co1 Co 0.00869 0.49225 0.11582
Co2 Co -0.10630 0.39370 0.10630
O1 O -0.04945 0.45055 0.04945
O2 O -0.09114 0.40582 0.20073
O3 O -0.02599 0.49404 0.20745
O4 O 0.06172 0.40592 0.13873
O5 O -0.03305 0.59207 0.09712
C1 C 0.09884 0.38572 0.09574
C2 C 0.15590 0.33915 0.11148
C3 C 0.16128 0.33214 0.18243
H1 H 0.16757 0.37504 0.20220
H2 H 0.19847 0.30424 0.19286
H3 H 0.12138 0.31247 0.19952
C4 C 0.21834 0.36615 0.08761
H4 H 0.22595 0.40869 0.10766
H5 H 0.21647 0.37102 0.04024
H6 H 0.25388 0.33657 0.09914
C5 C 0.14637 0.27713 0.08188
H7 H 0.14289 0.28243 0.03465
H8 H 0.10632 0.25751 0.09865
H9 H 0.18336 0.24884 0.09201
C6 C -0.05835 0.44721 0.23300
C7 C -0.05681 0.43787 0.30780
C8 C -0.12589 0.42554 0.33298
H10 H -0.14467 0.38816 0.31017
H11 H -0.15278 0.46409 0.32511
H12 H -0.12437 0.41650 0.37974
C9 C -0.01276 0.37776 0.31911
H13 H 0.03099 0.38677 0.30251
H14 H -0.03101 0.34016 0.29621
H15 H -0.01041 0.36834 0.36576
C10 C -0.02635 0.49686 0.34300
H16 H 0.01769 0.50428 0.32637
H17 H -0.02440 0.48816 0.38981
H18 H -0.05302 0.53556 0.33513
Co1I Co -0.00775 0.38418 -0.00869
O3I O -0.00596 0.29255 0.02599
C6I C -0.05279 0.26700 0.05835
O2I O -0.09418 0.29927 0.09114
Co1G Co -0.11582 0.50869 0.00775
O3G O -0.20745 0.47401 0.00596
C6G C -0.23300 0.44165 0.05279
O2G O -0.20073 0.40886 0.09418
O5I O 0.09207 0.40288 0.03305
O4I O -0.09408 0.36127 -0.06172
C1I C -0.11428 0.40426 -0.09884
O5G O -0.09712 0.46695 -0.09207
O4G O -0.13873 0.56172 0.09408
C1G C -0.09574 0.59884 0.11428
O5S O 0.09712 0.53305 0.09207
Co1S Co 0.11582 0.49131 -0.00775
O1S O 0.04945 0.54945 -0.04945
Co1L Co -0.00869 0.50775 -0.11582
O3L O 0.02599 0.50596 -0.20745
C6L C 0.05835 0.55279 -0.23300
O2L O 0.09114 0.59418 -0.20073
Co2L Co 0.10630 0.60630 -0.10630
Co1U Co 0.00775 0.61582 0.00869
O3U O 0.00596 0.70745 -0.02599
C6U C 0.05279 0.73300 -0.05835
O2U O 0.09418 0.70073 -0.09114
O2S O 0.20073 0.59114 -0.09418
C6S C 0.23300 0.55835 -0.05279
O3S O 0.20745 0.52599 -0.00596
O4S O 0.13873 0.43828 -0.09408
C1S C 0.09574 0.40116 -0.11428
O5L O 0.03305 0.40793 -0.09712
O4L O -0.06172 0.59408 -0.13873
C1L C -0.09884 0.61428 -0.09574
O5U O -0.09207 0.59712 -0.03305
O4U O 0.09408 0.63873 0.06172
C1U C 0.11428 0.59574 0.09884
C2U C 0.16085 0.61148 0.15590
C3U C 0.16786 0.68243 0.16128
H1U H 0.12496 0.70220 0.16757
H2U H 0.19576 0.69286 0.19847
H3U H 0.18753 0.69952 0.12138
C4U C 0.13385 0.58761 0.21834
H4U H 0.09131 0.60766 0.22595
H5U H 0.12898 0.54024 0.21647
H6U H 0.16343 0.59914 0.25388
C5U C 0.22287 0.58188 0.14637
H7U H 0.21757 0.53465 0.14289
H8U H 0.24249 0.59865 0.10632
H9U H 0.25116 0.59201 0.18336
C2L C -0.15590 0.66085 -0.11148
C3L C -0.16128 0.66786 -0.18243
H1L H -0.16757 0.62496 -0.20220
H2L H -0.19847 0.69576 -0.19286
H3L H -0.12138 0.68753 -0.19952
C4L C -0.21834 0.63385 -0.08761
H4L H -0.22595 0.59131 -0.10766
H5L H -0.21647 0.62898 -0.04024
H6L H -0.25388 0.66343 -0.09914
C5L C -0.14637 0.72287 -0.08188
H7L H -0.14289 0.71757 -0.03465
H8L H -0.10632 0.74249 -0.09865
H9L H -0.18336 0.75116 -0.09201
C2S C 0.11148 0.34410 -0.16085
C3S C 0.18243 0.33872 -0.16786
H1S H 0.20220 0.33243 -0.12496
H2S H 0.19286 0.30153 -0.19576
H3S H 0.19952 0.37862 -0.18753
C4S C 0.08761 0.28166 -0.13385
H4S H 0.10766 0.27405 -0.09131
H5S H 0.04024 0.28353 -0.12898
H6S H 0.09914 0.24612 -0.16343
C5S C 0.08188 0.35363 -0.22287
H7S H 0.03465 0.35711 -0.21757
H8S H 0.09865 0.39368 -0.24249
H9S H 0.09201 0.31664 -0.25116
C7S C 0.30780 0.55681 -0.06213
C8S C 0.33298 0.62589 -0.07446
H10S H 0.31017 0.64467 -0.11184
H11S H 0.32511 0.65278 -0.03591
H12S H 0.37974 0.62437 -0.08350
C9S C 0.31911 0.51276 -0.12224
H13S H 0.30251 0.46901 -0.11323
H14S H 0.29621 0.53101 -0.15984
H15S H 0.36576 0.51041 -0.13166
C10S C 0.34300 0.52635 -0.00314
H16S H 0.32637 0.48231 0.00428
H17S H 0.38981 0.52440 -0.01184
H18S H 0.33513 0.55302 0.03556
C7U C 0.06213 0.80780 -0.05681
C8U C 0.07446 0.83298 -0.12589
H10U H 0.11184 0.81017 -0.14467
H11U H 0.03591 0.82511 -0.15278
H12U H 0.08350 0.87974 -0.12437
C9U C 0.12224 0.81911 -0.01276
H13U H 0.11323 0.80251 0.03099
H14U H 0.15984 0.79621 -0.03101
H15U H 0.13166 0.86576 -0.01041
C10U C 0.00314 0.84300 -0.02635
H16U H -0.00428 0.82637 0.01769
H17U H 0.01184 0.88981 -0.02440
H18U H -0.03556 0.83513 -0.05302
C7L C 0.05681 0.56213 -0.30780
C8L C 0.12589 0.57446 -0.33298
H10L H 0.14467 0.61184 -0.31017
H11L H 0.15278 0.53591 -0.32511
H12L H 0.12437 0.58350 -0.37974
C9L C 0.01276 0.62224 -0.31911
H13L H -0.03099 0.61323 -0.30251
H14L H 0.03101 0.65984 -0.29621
H15L H 0.01041 0.63166 -0.36576
C10L C 0.02635 0.50314 -0.34300
H16L H -0.01769 0.49572 -0.32637
H17L H 0.02440 0.51184 -0.38981
H18L H 0.05302 0.46444 -0.33513
C2G C -0.11148 0.65590 0.16085
C3G C -0.18243 0.66128 0.16786
H1G H -0.20220 0.66757 0.12496
H2G H -0.19286 0.69847 0.19576
H3G H -0.19952 0.62138 0.18753
C4G C -0.08761 0.71834 0.13385
H4G H -0.10766 0.72595 0.09131
H5G H -0.04024 0.71647 0.12898
H6G H -0.09914 0.75388 0.16343
C5G C -0.08188 0.64637 0.22287
H7G H -0.03465 0.64289 0.21757
H8G H -0.09865 0.60632 0.24249
H9G H -0.09201 0.68336 0.25116
C2I C -0.16085 0.38852 -0.15590
C3I C -0.16786 0.31757 -0.16128
H1I H -0.12496 0.29780 -0.16757
H2I H -0.19576 0.30714 -0.19847
H3I H -0.18753 0.30048 -0.12138
C4I C -0.13385 0.41239 -0.21834
H4I H -0.09131 0.39234 -0.22595
H5I H -0.12898 0.45976 -0.21647
H6I H -0.16343 0.40086 -0.25388
C5I C -0.22287 0.41812 -0.14637
H7I H -0.21757 0.46535 -0.14289
H8I H -0.24249 0.40135 -0.10632
H9I H -0.25116 0.40799 -0.18336
C7G C -0.30780 0.44319 0.06213
C8G C -0.33298 0.37411 0.07446
H10G H -0.31017 0.35533 0.11184
H11G H -0.32511 0.34722 0.03591
H12G H -0.37974 0.37563 0.08350
C9G C -0.31911 0.48724 0.12224
H13G H -0.30251 0.53099 0.11323
H14G H -0.29621 0.46899 0.15984
H15G H -0.36576 0.48959 0.13166
C10G C -0.34300 0.47365 0.00314
H16G H -0.32637 0.51769 -0.00428
H17G H -0.38981 0.47560 0.01184
H18G H -0.33513 0.44698 -0.03556
C7I C -0.06213 0.19220 0.05681
C8I C -0.07446 0.16702 0.12589
H10I H -0.11184 0.18983 0.14467
H11I H -0.03591 0.17489 0.15278
H12I H -0.08350 0.12026 0.12437
C9I C -0.12224 0.18089 0.01276
H13I H -0.11323 0.19749 -0.03099
H14I H -0.15984 0.20379 0.03101
H15I H -0.13166 0.13424 0.01041
C10I C -0.00314 0.15700 0.02635
H16I H 0.00428 0.17363 -0.01769
H17I H -0.01184 0.11019 0.02440
H18I H 0.03556 0.16487 0.05302
#END

data_CSD_CIF_CAKFUP03
_audit_creation_date 2022-03-08
_audit_creation_method CSD-ConQuest-V1
_database_code_CSD CAKFUP03
_database_code_depnum_ccdc_archive 'CCDC 2104129'
_chemical_formula_sum 'C6 H18 Cl6 S2 Sn1'
_chemical_formula_moiety
;
2(C3 H9 S1 1+),Cl6 Sn1 2-
;
_journal_coden_Cambridge 9
_journal_volume 61
_journal_year 2022
_journal_page_first 4769
_journal_name_full 'Inorg.Chem. '
loop_
_publ_author_name
"M.M.Elsenety"
"A.Kaltzoglou"
"I.Koutselas"
"V.Psycharis"
"C.P.Raptopoulou"
"A.G.Kontos"
"K.G.Papadokostaki"
"N.K.Nasikas"
"P.Falaras"
_chemical_name_systematic
;
bis(trimethylsulfanium) hexachloro-tin(iv)
;
_cell_volume   1896.586
_exptl_crystal_colour 'colorless'
_exptl_crystal_density_diffrn 1.701
_exptl_crystal_description 'parallelepiped'
_diffrn_ambient_temperature 160
#These two values have been output from a single CSD field.
_refine_ls_R_factor_gt 0.0147
_refine_ls_wR_factor_gt 0.0147
_symmetry_cell_setting cubic
_symmetry_space_group_name_H-M 'P a -3'
_symmetry_Int_Tables_number 205
loop_
_symmetry_equiv_pos_site_id
_symmetry_equiv_pos_as_xyz
1 x,y,z
2 1/2-x,-y,1/2+z
3 1/2+x,1/2-y,-z
4 -x,1/2+y,1/2-z
5 y,z,x
6 1/2-y,-z,1/2+x
7 1/2+y,1/2-z,-x
8 -y,1/2+z,1/2-x
9 z,x,y
10 -z,1/2+x,1/2-y
11 1/2-z,-x,1/2+y
12 1/2+z,1/2-x,-y
13 -x,-y,-z
14 -1/2+x,y,-1/2-z
15 -1/2-x,-1/2+y,z
16 x,-1/2-y,-1/2+z
17 -y,-z,-x
18 -1/2+y,z,-1/2-x
19 -1/2-y,-1/2+z,x
20 y,-1/2-z,-1/2+x
21 -z,-x,-y
22 z,-1/2-x,-1/2+y
23 -1/2+z,x,-1/2-y
24 -1/2-z,-1/2+x,y
_cell_length_a 12.3782(3)
_cell_length_b 12.3782(3)
_cell_length_c 12.3782(3)
_cell_angle_alpha 90
_cell_angle_beta 90
_cell_angle_gamma 90
_cell_formula_units_Z 4
loop_
_atom_type_symbol
_atom_type_radius_bond
C 0.68
H 0.23
Cl 0.99
S 1.02
Sn 1.39
loop_
_atom_site_label
_atom_site_type_symbol
_atom_site_fract_x
_atom_site_fract_y
_atom_site_fract_z
Sn1 Sn 0.50000 0.00000 0.00000
Cl1 Cl 0.54385(3) 0.03671(3) 0.18804(3)
S1 S 0.22893(3) 0.22893(3) 0.22893(3)
C1 C 0.30663(15) 0.16190(16) 0.33051(15)
H1 H 0.2574(17) 0.1235(17) 0.3749(16)
H2 H 0.3477(17) 0.2171(17) 0.3702(19)
H3 H 0.3555(18) 0.1114(18) 0.2954(17)
Cl1E Cl 0.46329(3) -0.18804(3) 0.04385(3)
Cl1K Cl 0.68804(3) -0.04385(3) -0.03671(3)
Cl1L Cl 0.45615(3) -0.03671(3) -0.18804(3)
Cl1Q Cl 0.53671(3) 0.18804(3) -0.04385(3)
Cl1W Cl 0.31196(3) 0.04385(3) 0.03671(3)
C1D C 0.16190(15) 0.33051(16) 0.30663(15)
H1D H 0.1235(17) 0.3749(17) 0.2574(16)
H2D H 0.2171(17) 0.3702(17) 0.3477(19)
H3D H 0.1114(18) 0.2954(18) 0.3555(17)
C1H C 0.33051(15) 0.30663(16) 0.16190(15)
H1H H 0.3749(17) 0.2574(17) 0.1235(16)
H2H H 0.3702(17) 0.3477(17) 0.2171(19)
H3H H 0.2954(18) 0.3555(18) 0.1114(17)
#END
